250
Lattice="14.450000000000001 0.0 0.0 0.0 14.450000000000001 0.0 0.0 0.0 14.450000000000001" Properties=species:S:1:pos:R:3 energy=-1032.8834047022697 pbc="T T T"
Al       0.00000000       0.00000000       0.00000000
Al       1.44500000       1.44500000       1.44500000
Al       0.00000000       0.00000000       2.89000000
Al       1.44500000       1.44500000       4.33500000
Cr       0.00000000       0.00000000       5.78000000
Fe       1.44500000       1.44500000       7.22500000
Fe       0.00000000       0.00000000       8.67000000
Al       1.44500000       1.44500000      10.11500000
Cr       0.00000000       0.00000000      11.56000000
Cr       1.44500000       1.44500000      13.00500000
Fe       0.00000000       2.89000000       0.00000000
Cr       1.44500000       4.33500000       1.44500000
Fe       0.00000000       2.89000000       2.89000000
Fe       1.44500000       4.33500000       4.33500000
Cr       0.00000000       2.89000000       5.78000000
Fe       1.44500000       4.33500000       7.22500000
Al       0.00000000       2.89000000       8.67000000
Al       1.44500000       4.33500000      10.11500000
Fe       0.00000000       2.89000000      11.56000000
Al       1.44500000       4.33500000      13.00500000
Al       0.00000000       5.78000000       0.00000000
Fe       1.44500000       7.22500000       1.44500000
Cr       0.00000000       5.78000000       2.89000000
Fe       1.44500000       7.22500000       4.33500000
Al       0.00000000       5.78000000       5.78000000
Al       1.44500000       7.22500000       7.22500000
Fe       0.00000000       5.78000000       8.67000000
Al       1.44500000       7.22500000      10.11500000
Al       0.00000000       5.78000000      11.56000000
Al       1.44500000       7.22500000      13.00500000
Al       0.00000000       8.67000000       0.00000000
Cr       1.44500000      10.11500000       1.44500000
Cr       0.00000000       8.67000000       2.89000000
Al       1.44500000      10.11500000       4.33500000
Al       0.00000000       8.67000000       5.78000000
Cr       1.44500000      10.11500000       7.22500000
Al       0.00000000       8.67000000       8.67000000
Al       1.44500000      10.11500000      10.11500000
Al       0.00000000       8.67000000      11.56000000
Cr       1.44500000      10.11500000      13.00500000
Cr       0.00000000      11.56000000       0.00000000
Cr       1.44500000      13.00500000       1.44500000
Cr       0.00000000      11.56000000       2.89000000
Cr       1.44500000      13.00500000       4.33500000
Cr       0.00000000      11.56000000       5.78000000
Cr       1.44500000      13.00500000       7.22500000
Fe       0.00000000      11.56000000       8.67000000
Al       1.44500000      13.00500000      10.11500000
Cr       0.00000000      11.56000000      11.56000000
Fe       1.44500000      13.00500000      13.00500000
Al       2.89000000       0.00000000       0.00000000
Al       4.33500000       1.44500000       1.44500000
Cr       2.89000000       0.00000000       2.89000000
Al       4.33500000       1.44500000       4.33500000
Fe       2.89000000       0.00000000       5.78000000
Fe       4.33500000       1.44500000       7.22500000
Cr       2.89000000       0.00000000       8.67000000
Fe       4.33500000       1.44500000      10.11500000
Al       2.89000000       0.00000000      11.56000000
Cr       4.33500000       1.44500000      13.00500000
Cr       2.89000000       2.89000000       0.00000000
Al       4.33500000       4.33500000       1.44500000
Cr       2.89000000       2.89000000       2.89000000
Cr       4.33500000       4.33500000       4.33500000
Fe       2.89000000       2.89000000       5.78000000
Al       4.33500000       4.33500000       7.22500000
Cr       2.89000000       2.89000000       8.67000000
Cr       4.33500000       4.33500000      10.11500000
Cr       2.89000000       2.89000000      11.56000000
Al       4.33500000       4.33500000      13.00500000
Cr       2.89000000       5.78000000       0.00000000
Fe       4.33500000       7.22500000       1.44500000
Cr       2.89000000       5.78000000       2.89000000
Al       4.33500000       7.22500000       4.33500000
Al       2.89000000       5.78000000       5.78000000
Al       4.33500000       7.22500000       7.22500000
Fe       2.89000000       5.78000000       8.67000000
Al       4.33500000       7.22500000      10.11500000
Al       2.89000000       5.78000000      11.56000000
Cr       4.33500000       7.22500000      13.00500000
Cr       2.89000000       8.67000000       0.00000000
Cr       4.33500000      10.11500000       1.44500000
Al       2.89000000       8.67000000       2.89000000
Fe       4.33500000      10.11500000       4.33500000
Al       2.89000000       8.67000000       5.78000000
Al       4.33500000      10.11500000       7.22500000
Al       2.89000000       8.67000000       8.67000000
Al       4.33500000      10.11500000      10.11500000
Fe       2.89000000       8.67000000      11.56000000
Al       4.33500000      10.11500000      13.00500000
Fe       2.89000000      11.56000000       0.00000000
Al       4.33500000      13.00500000       1.44500000
Fe       2.89000000      11.56000000       2.89000000
Cr       4.33500000      13.00500000       4.33500000
Fe       2.89000000      11.56000000       5.78000000
Al       4.33500000      13.00500000       7.22500000
Fe       2.89000000      11.56000000       8.67000000
Cr       4.33500000      13.00500000      10.11500000
Cr       2.89000000      11.56000000      11.56000000
Al       4.33500000      13.00500000      13.00500000
Al       5.78000000       0.00000000       0.00000000
Fe       7.22500000       1.44500000       1.44500000
Fe       5.78000000       0.00000000       2.89000000
Al       7.22500000       1.44500000       4.33500000
Al       5.78000000       0.00000000       5.78000000
Fe       7.22500000       1.44500000       7.22500000
Fe       5.78000000       0.00000000       8.67000000
Fe       7.22500000       1.44500000      10.11500000
Cr       5.78000000       0.00000000      11.56000000
Cr       7.22500000       1.44500000      13.00500000
Al       5.78000000       2.89000000       0.00000000
Fe       7.22500000       4.33500000       1.44500000
Fe       5.78000000       2.89000000       2.89000000
Cr       7.22500000       4.33500000       4.33500000
Fe       5.78000000       2.89000000       5.78000000
Cr       7.22500000       4.33500000       7.22500000
Fe       5.78000000       2.89000000       8.67000000
Fe       7.22500000       4.33500000      10.11500000
Cr       5.78000000       2.89000000      11.56000000
Cr       7.22500000       4.33500000      13.00500000
Cr       5.78000000       5.78000000       0.00000000
Fe       7.22500000       7.22500000       1.44500000
Al       5.78000000       5.78000000       2.89000000
Cr       7.22500000       7.22500000       4.33500000
Al       5.78000000       5.78000000       5.78000000
Fe       7.22500000       7.22500000       7.22500000
Fe       5.78000000       5.78000000       8.67000000
Cr       7.22500000       7.22500000      10.11500000
Al       5.78000000       5.78000000      11.56000000
Cr       7.22500000       7.22500000      13.00500000
Fe       5.78000000       8.67000000       0.00000000
Fe       7.22500000      10.11500000       1.44500000
Cr       5.78000000       8.67000000       2.89000000
Al       7.22500000      10.11500000       4.33500000
Fe       5.78000000       8.67000000       5.78000000
Fe       7.22500000      10.11500000       7.22500000
Fe       5.78000000       8.67000000       8.67000000
Al       7.22500000      10.11500000      10.11500000
Fe       5.78000000       8.67000000      11.56000000
Al       7.22500000      10.11500000      13.00500000
Fe       5.78000000      11.56000000       0.00000000
Al       7.22500000      13.00500000       1.44500000
Fe       5.78000000      11.56000000       2.89000000
Fe       7.22500000      13.00500000       4.33500000
Cr       5.78000000      11.56000000       5.78000000
Cr       7.22500000      13.00500000       7.22500000
Al       5.78000000      11.56000000       8.67000000
Cr       7.22500000      13.00500000      10.11500000
Al       5.78000000      11.56000000      11.56000000
Cr       7.22500000      13.00500000      13.00500000
Fe       8.67000000       0.00000000       0.00000000
Al      10.11500000       1.44500000       1.44500000
Al       8.67000000       0.00000000       2.89000000
Cr      10.11500000       1.44500000       4.33500000
Fe       8.67000000       0.00000000       5.78000000
Cr      10.11500000       1.44500000       7.22500000
Fe       8.67000000       0.00000000       8.67000000
Al      10.11500000       1.44500000      10.11500000
Cr       8.67000000       0.00000000      11.56000000
Fe      10.11500000       1.44500000      13.00500000
Fe       8.67000000       2.89000000       0.00000000
Al      10.11500000       4.33500000       1.44500000
Cr       8.67000000       2.89000000       2.89000000
Cr      10.11500000       4.33500000       4.33500000
Fe       8.67000000       2.89000000       5.78000000
Al      10.11500000       4.33500000       7.22500000
Fe       8.67000000       2.89000000       8.67000000
Fe      10.11500000       4.33500000      10.11500000
Fe       8.67000000       2.89000000      11.56000000
Cr      10.11500000       4.33500000      13.00500000
Fe       8.67000000       5.78000000       0.00000000
Cr      10.11500000       7.22500000       1.44500000
Fe       8.67000000       5.78000000       2.89000000
Fe      10.11500000       7.22500000       4.33500000
Al       8.67000000       5.78000000       5.78000000
Cr      10.11500000       7.22500000       7.22500000
Al       8.67000000       5.78000000       8.67000000
Al      10.11500000       7.22500000      10.11500000
Cr       8.67000000       5.78000000      11.56000000
Cr      10.11500000       7.22500000      13.00500000
Cr       8.67000000       8.67000000       0.00000000
Cr      10.11500000      10.11500000       1.44500000
Cr       8.67000000       8.67000000       2.89000000
Al      10.11500000      10.11500000       4.33500000
Cr       8.67000000       8.67000000       5.78000000
Fe      10.11500000      10.11500000       7.22500000
Fe       8.67000000       8.67000000       8.67000000
Al      10.11500000      10.11500000      10.11500000
Fe       8.67000000       8.67000000      11.56000000
Cr      10.11500000      10.11500000      13.00500000
Cr       8.67000000      11.56000000       0.00000000
Cr      10.11500000      13.00500000       1.44500000
Cr       8.67000000      11.56000000       2.89000000
Cr      10.11500000      13.00500000       4.33500000
Cr       8.67000000      11.56000000       5.78000000
Cr      10.11500000      13.00500000       7.22500000
Al       8.67000000      11.56000000       8.67000000
Cr      10.11500000      13.00500000      10.11500000
Fe       8.67000000      11.56000000      11.56000000
Al      10.11500000      13.00500000      13.00500000
Cr      11.56000000       0.00000000       0.00000000
Al      13.00500000       1.44500000       1.44500000
Al      11.56000000       0.00000000       2.89000000
Al      13.00500000       1.44500000       4.33500000
Al      11.56000000       0.00000000       5.78000000
Fe      13.00500000       1.44500000       7.22500000
Fe      11.56000000       0.00000000       8.67000000
Fe      13.00500000       1.44500000      10.11500000
Fe      11.56000000       0.00000000      11.56000000
Fe      13.00500000       1.44500000      13.00500000
Al      11.56000000       2.89000000       0.00000000
Al      13.00500000       4.33500000       1.44500000
Al      11.56000000       2.89000000       2.89000000
Cr      13.00500000       4.33500000       4.33500000
Cr      11.56000000       2.89000000       5.78000000
Al      13.00500000       4.33500000       7.22500000
Cr      11.56000000       2.89000000       8.67000000
Al      13.00500000       4.33500000      10.11500000
Al      11.56000000       2.89000000      11.56000000
Cr      13.00500000       4.33500000      13.00500000
Fe      11.56000000       5.78000000       0.00000000
Al      13.00500000       7.22500000       1.44500000
Cr      11.56000000       5.78000000       2.89000000
Fe      13.00500000       7.22500000       4.33500000
Al      11.56000000       5.78000000       5.78000000
Fe      13.00500000       7.22500000       7.22500000
Fe      11.56000000       5.78000000       8.67000000
Al      13.00500000       7.22500000      10.11500000
Cr      11.56000000       5.78000000      11.56000000
Fe      13.00500000       7.22500000      13.00500000
Fe      11.56000000       8.67000000       0.00000000
Cr      13.00500000      10.11500000       1.44500000
Fe      11.56000000       8.67000000       2.89000000
Fe      13.00500000      10.11500000       4.33500000
Cr      11.56000000       8.67000000       5.78000000
Fe      13.00500000      10.11500000       7.22500000
Al      11.56000000       8.67000000       8.67000000
Cr      13.00500000      10.11500000      10.11500000
Fe      11.56000000       8.67000000      11.56000000
Fe      13.00500000      10.11500000      13.00500000
Al      11.56000000      11.56000000       0.00000000
Cr      13.00500000      13.00500000       1.44500000
Fe      11.56000000      11.56000000       2.89000000
Al      13.00500000      13.00500000       4.33500000
Cr      11.56000000      11.56000000       5.78000000
Al      13.00500000      13.00500000       7.22500000
Al      11.56000000      11.56000000       8.67000000
Al      13.00500000      13.00500000      10.11500000
Cr      11.56000000      11.56000000      11.56000000
Cr      13.00500000      13.00500000      13.00500000
