256
Lattice="14.4 0.0 0.0 0.0 14.4 0.0 0.0 0.0 14.4" Properties=species:S:1:pos:R:3:masses:R:1:id:I:1:type:I:1 comment="(written by ASE)" energy=-1023.13490051365 pbc="T T T"
Fe       0.00000000       0.00000000       0.00000000      55.84500000        1        4
Ni       0.00000000       1.80000000       1.80000000      58.69340000        2        2
Ni       1.80000000       0.00000000       1.80000000      58.69340000        3        2
Co       1.80000000       1.80000000       0.00000000      58.93319400        4        1
Co       0.00000000       0.00000000       3.60000000      58.93319400        5        1
Ni       0.00000000       1.80000000       5.40000000      58.69340000        6        2
Mn       1.80000000       0.00000000       5.40000000      54.93804400        7        5
Mn       1.80000000       1.80000000       3.60000000      54.93804400        8        5
Mn       0.00000000       0.00000000       7.20000000      54.93804400        9        5
Cr       0.00000000       1.80000000       9.00000000      51.99610000       10        3
Mn       1.80000000       0.00000000       9.00000000      54.93804400       11        5
Mn       1.80000000       1.80000000       7.20000000      54.93804400       12        5
Co       0.00000000       0.00000000      10.80000000      58.93319400       13        1
Ni       0.00000000       1.80000000      12.60000000      58.69340000       14        2
Fe       1.80000000       0.00000000      12.60000000      55.84500000       15        4
Ni       1.80000000       1.80000000      10.80000000      58.69340000       16        2
Ni       0.00000000       3.60000000       0.00000000      58.69340000       17        2
Co       0.00000000       5.40000000       1.80000000      58.93319400       18        1
Ni       1.80000000       3.60000000       1.80000000      58.69340000       19        2
Ni       1.80000000       5.40000000       0.00000000      58.69340000       20        2
Ni       0.00000000       3.60000000       3.60000000      58.69340000       21        2
Fe       0.00000000       5.40000000       5.40000000      55.84500000       22        4
Ni       1.80000000       3.60000000       5.40000000      58.69340000       23        2
Fe       1.80000000       5.40000000       3.60000000      55.84500000       24        4
Co       0.00000000       3.60000000       7.20000000      58.93319400       25        1
Ni       0.00000000       5.40000000       9.00000000      58.69340000       26        2
Fe       1.80000000       3.60000000       9.00000000      55.84500000       27        4
Ni       1.80000000       5.40000000       7.20000000      58.69340000       28        2
Ni       0.00000000       3.60000000      10.80000000      58.69340000       29        2
Fe       0.00000000       5.40000000      12.60000000      55.84500000       30        4
Fe       1.80000000       3.60000000      12.60000000      55.84500000       31        4
Ni       1.80000000       5.40000000      10.80000000      58.69340000       32        2
Fe       0.00000000       7.20000000       0.00000000      55.84500000       33        4
Ni       0.00000000       9.00000000       1.80000000      58.69340000       34        2
Ni       1.80000000       7.20000000       1.80000000      58.69340000       35        2
Co       1.80000000       9.00000000       0.00000000      58.93319400       36        1
Ni       0.00000000       7.20000000       3.60000000      58.69340000       37        2
Fe       0.00000000       9.00000000       5.40000000      55.84500000       38        4
Ni       1.80000000       7.20000000       5.40000000      58.69340000       39        2
Fe       1.80000000       9.00000000       3.60000000      55.84500000       40        4
Fe       0.00000000       7.20000000       7.20000000      55.84500000       41        4
Fe       0.00000000       9.00000000       9.00000000      55.84500000       42        4
Ni       1.80000000       7.20000000       9.00000000      58.69340000       43        2
Ni       1.80000000       9.00000000       7.20000000      58.69340000       44        2
Ni       0.00000000       7.20000000      10.80000000      58.69340000       45        2
Ni       0.00000000       9.00000000      12.60000000      58.69340000       46        2
Fe       1.80000000       7.20000000      12.60000000      55.84500000       47        4
Co       1.80000000       9.00000000      10.80000000      58.93319400       48        1
Fe       0.00000000      10.80000000       0.00000000      55.84500000       49        4
Fe       0.00000000      12.60000000       1.80000000      55.84500000       50        4
Fe       1.80000000      10.80000000       1.80000000      55.84500000       51        4
Co       1.80000000      12.60000000       0.00000000      58.93319400       52        1
Ni       0.00000000      10.80000000       3.60000000      58.69340000       53        2
Cr       0.00000000      12.60000000       5.40000000      51.99610000       54        3
Co       1.80000000      10.80000000       5.40000000      58.93319400       55        1
Cr       1.80000000      12.60000000       3.60000000      51.99610000       56        3
Cr       0.00000000      10.80000000       7.20000000      51.99610000       57        3
Mn       0.00000000      12.60000000       9.00000000      54.93804400       58        5
Mn       1.80000000      10.80000000       9.00000000      54.93804400       59        5
Mn       1.80000000      12.60000000       7.20000000      54.93804400       60        5
Ni       0.00000000      10.80000000      10.80000000      58.69340000       61        2
Fe       0.00000000      12.60000000      12.60000000      55.84500000       62        4
Fe       1.80000000      10.80000000      12.60000000      55.84500000       63        4
Cr       1.80000000      12.60000000      10.80000000      51.99610000       64        3
Fe       3.60000000       0.00000000       0.00000000      55.84500000       65        4
Cr       3.60000000       1.80000000       1.80000000      51.99610000       66        3
Mn       5.40000000       0.00000000       1.80000000      54.93804400       67        5
Co       5.40000000       1.80000000       0.00000000      58.93319400       68        1
Mn       3.60000000       0.00000000       3.60000000      54.93804400       69        5
Cr       3.60000000       1.80000000       5.40000000      51.99610000       70        3
Co       5.40000000       0.00000000       5.40000000      58.93319400       71        1
Mn       5.40000000       1.80000000       3.60000000      54.93804400       72        5
Cr       3.60000000       0.00000000       7.20000000      51.99610000       73        3
Ni       3.60000000       1.80000000       9.00000000      58.69340000       74        2
Fe       5.40000000       0.00000000       9.00000000      55.84500000       75        4
Fe       5.40000000       1.80000000       7.20000000      55.84500000       76        4
Co       3.60000000       0.00000000      10.80000000      58.93319400       77        1
Fe       3.60000000       1.80000000      12.60000000      55.84500000       78        4
Fe       5.40000000       0.00000000      12.60000000      55.84500000       79        4
Co       5.40000000       1.80000000      10.80000000      58.93319400       80        1
Fe       3.60000000       3.60000000       0.00000000      55.84500000       81        4
Co       3.60000000       5.40000000       1.80000000      58.93319400       82        1
Mn       5.40000000       3.60000000       1.80000000      54.93804400       83        5
Cr       5.40000000       5.40000000       0.00000000      51.99610000       84        3
Mn       3.60000000       3.60000000       3.60000000      54.93804400       85        5
Co       3.60000000       5.40000000       5.40000000      58.93319400       86        1
Cr       5.40000000       3.60000000       5.40000000      51.99610000       87        3
Mn       5.40000000       5.40000000       3.60000000      54.93804400       88        5
Fe       3.60000000       3.60000000       7.20000000      55.84500000       89        4
Fe       3.60000000       5.40000000       9.00000000      55.84500000       90        4
Co       5.40000000       3.60000000       9.00000000      58.93319400       91        1
Ni       5.40000000       5.40000000       7.20000000      58.69340000       92        2
Ni       3.60000000       3.60000000      10.80000000      58.69340000       93        2
Co       3.60000000       5.40000000      12.60000000      58.93319400       94        1
Ni       5.40000000       3.60000000      12.60000000      58.69340000       95        2
Fe       5.40000000       5.40000000      10.80000000      55.84500000       96        4
Mn       3.60000000       7.20000000       0.00000000      54.93804400       97        5
Cr       3.60000000       9.00000000       1.80000000      51.99610000       98        3
Mn       5.40000000       7.20000000       1.80000000      54.93804400       99        5
Mn       5.40000000       9.00000000       0.00000000      54.93804400      100        5
Ni       3.60000000       7.20000000       3.60000000      58.69340000      101        2
Fe       3.60000000       9.00000000       5.40000000      55.84500000      102        4
Fe       5.40000000       7.20000000       5.40000000      55.84500000      103        4
Co       5.40000000       9.00000000       3.60000000      58.93319400      104        1
Fe       3.60000000       7.20000000       7.20000000      55.84500000      105        4
Cr       3.60000000       9.00000000       9.00000000      51.99610000      106        3
Co       5.40000000       7.20000000       9.00000000      58.93319400      107        1
Ni       5.40000000       9.00000000       7.20000000      58.69340000      108        2
Fe       3.60000000       7.20000000      10.80000000      55.84500000      109        4
Cr       3.60000000       9.00000000      12.60000000      51.99610000      110        3
Co       5.40000000       7.20000000      12.60000000      58.93319400      111        1
Mn       5.40000000       9.00000000      10.80000000      54.93804400      112        5
Co       3.60000000      10.80000000       0.00000000      58.93319400      113        1
Cr       3.60000000      12.60000000       1.80000000      51.99610000      114        3
Mn       5.40000000      10.80000000       1.80000000      54.93804400      115        5
Co       5.40000000      12.60000000       0.00000000      58.93319400      116        1
Co       3.60000000      10.80000000       3.60000000      58.93319400      117        1
Mn       3.60000000      12.60000000       5.40000000      54.93804400      118        5
Mn       5.40000000      10.80000000       5.40000000      54.93804400      119        5
Cr       5.40000000      12.60000000       3.60000000      51.99610000      120        3
Cr       3.60000000      10.80000000       7.20000000      51.99610000      121        3
Mn       3.60000000      12.60000000       9.00000000      54.93804400      122        5
Mn       5.40000000      10.80000000       9.00000000      54.93804400      123        5
Mn       5.40000000      12.60000000       7.20000000      54.93804400      124        5
Cr       3.60000000      10.80000000      10.80000000      51.99610000      125        3
Ni       3.60000000      12.60000000      12.60000000      58.69340000      126        2
Mn       5.40000000      10.80000000      12.60000000      54.93804400      127        5
Cr       5.40000000      12.60000000      10.80000000      51.99610000      128        3
Co       7.20000000       0.00000000       0.00000000      58.93319400      129        1
Cr       7.20000000       1.80000000       1.80000000      51.99610000      130        3
Cr       9.00000000       0.00000000       1.80000000      51.99610000      131        3
Mn       9.00000000       1.80000000       0.00000000      54.93804400      132        5
Mn       7.20000000       0.00000000       3.60000000      54.93804400      133        5
Cr       7.20000000       1.80000000       5.40000000      51.99610000      134        3
Fe       9.00000000       0.00000000       5.40000000      55.84500000      135        4
Mn       9.00000000       1.80000000       3.60000000      54.93804400      136        5
Ni       7.20000000       0.00000000       7.20000000      58.69340000      137        2
Cr       7.20000000       1.80000000       9.00000000      51.99610000      138        3
Fe       9.00000000       0.00000000       9.00000000      55.84500000      139        4
Ni       9.00000000       1.80000000       7.20000000      58.69340000      140        2
Co       7.20000000       0.00000000      10.80000000      58.93319400      141        1
Cr       7.20000000       1.80000000      12.60000000      51.99610000      142        3
Mn       9.00000000       0.00000000      12.60000000      54.93804400      143        5
Mn       9.00000000       1.80000000      10.80000000      54.93804400      144        5
Mn       7.20000000       3.60000000       0.00000000      54.93804400      145        5
Mn       7.20000000       5.40000000       1.80000000      54.93804400      146        5
Cr       9.00000000       3.60000000       1.80000000      51.99610000      147        3
Mn       9.00000000       5.40000000       0.00000000      54.93804400      148        5
Mn       7.20000000       3.60000000       3.60000000      54.93804400      149        5
Cr       7.20000000       5.40000000       5.40000000      51.99610000      150        3
Co       9.00000000       3.60000000       5.40000000      58.93319400      151        1
Mn       9.00000000       5.40000000       3.60000000      54.93804400      152        5
Mn       7.20000000       3.60000000       7.20000000      54.93804400      153        5
Mn       7.20000000       5.40000000       9.00000000      54.93804400      154        5
Co       9.00000000       3.60000000       9.00000000      58.93319400      155        1
Cr       9.00000000       5.40000000       7.20000000      51.99610000      156        3
Mn       7.20000000       3.60000000      10.80000000      54.93804400      157        5
Cr       7.20000000       5.40000000      12.60000000      51.99610000      158        3
Mn       9.00000000       3.60000000      12.60000000      54.93804400      159        5
Mn       9.00000000       5.40000000      10.80000000      54.93804400      160        5
Mn       7.20000000       7.20000000       0.00000000      54.93804400      161        5
Cr       7.20000000       9.00000000       1.80000000      51.99610000      162        3
Cr       9.00000000       7.20000000       1.80000000      51.99610000      163        3
Mn       9.00000000       9.00000000       0.00000000      54.93804400      164        5
Mn       7.20000000       7.20000000       3.60000000      54.93804400      165        5
Cr       7.20000000       9.00000000       5.40000000      51.99610000      166        3
Mn       9.00000000       7.20000000       5.40000000      54.93804400      167        5
Co       9.00000000       9.00000000       3.60000000      58.93319400      168        1
Mn       7.20000000       7.20000000       7.20000000      54.93804400      169        5
Mn       7.20000000       9.00000000       9.00000000      54.93804400      170        5
Mn       9.00000000       7.20000000       9.00000000      54.93804400      171        5
Co       9.00000000       9.00000000       7.20000000      58.93319400      172        1
Cr       7.20000000       7.20000000      10.80000000      51.99610000      173        3
Mn       7.20000000       9.00000000      12.60000000      54.93804400      174        5
Mn       9.00000000       7.20000000      12.60000000      54.93804400      175        5
Cr       9.00000000       9.00000000      10.80000000      51.99610000      176        3
Cr       7.20000000      10.80000000       0.00000000      51.99610000      177        3
Mn       7.20000000      12.60000000       1.80000000      54.93804400      178        5
Ni       9.00000000      10.80000000       1.80000000      58.69340000      179        2
Mn       9.00000000      12.60000000       0.00000000      54.93804400      180        5
Co       7.20000000      10.80000000       3.60000000      58.93319400      181        1
Cr       7.20000000      12.60000000       5.40000000      51.99610000      182        3
Fe       9.00000000      10.80000000       5.40000000      55.84500000      183        4
Co       9.00000000      12.60000000       3.60000000      58.93319400      184        1
Mn       7.20000000      10.80000000       7.20000000      54.93804400      185        5
Co       7.20000000      12.60000000       9.00000000      58.93319400      186        1
Cr       9.00000000      10.80000000       9.00000000      51.99610000      187        3
Co       9.00000000      12.60000000       7.20000000      58.93319400      188        1
Mn       7.20000000      10.80000000      10.80000000      54.93804400      189        5
Cr       7.20000000      12.60000000      12.60000000      51.99610000      190        3
Mn       9.00000000      10.80000000      12.60000000      54.93804400      191        5
Mn       9.00000000      12.60000000      10.80000000      54.93804400      192        5
Cr      10.80000000       0.00000000       0.00000000      51.99610000      193        3
Co      10.80000000       1.80000000       1.80000000      58.93319400      194        1
Fe      12.60000000       0.00000000       1.80000000      55.84500000      195        4
Fe      12.60000000       1.80000000       0.00000000      55.84500000      196        4
Co      10.80000000       0.00000000       3.60000000      58.93319400      197        1
Ni      10.80000000       1.80000000       5.40000000      58.69340000      198        2
Ni      12.60000000       0.00000000       5.40000000      58.69340000      199        2
Fe      12.60000000       1.80000000       3.60000000      55.84500000      200        4
Co      10.80000000       0.00000000       7.20000000      58.93319400      201        1
Cr      10.80000000       1.80000000       9.00000000      51.99610000      202        3
Cr      12.60000000       0.00000000       9.00000000      51.99610000      203        3
Mn      12.60000000       1.80000000       7.20000000      54.93804400      204        5
Co      10.80000000       0.00000000      10.80000000      58.93319400      205        1
Mn      10.80000000       1.80000000      12.60000000      54.93804400      206        5
Cr      12.60000000       0.00000000      12.60000000      51.99610000      207        3
Mn      12.60000000       1.80000000      10.80000000      54.93804400      208        5
Cr      10.80000000       3.60000000       0.00000000      51.99610000      209        3
Co      10.80000000       5.40000000       1.80000000      58.93319400      210        1
Fe      12.60000000       3.60000000       1.80000000      55.84500000      211        4
Fe      12.60000000       5.40000000       0.00000000      55.84500000      212        4
Ni      10.80000000       3.60000000       3.60000000      58.69340000      213        2
Co      10.80000000       5.40000000       5.40000000      58.93319400      214        1
Ni      12.60000000       3.60000000       5.40000000      58.69340000      215        2
Fe      12.60000000       5.40000000       3.60000000      55.84500000      216        4
Fe      10.80000000       3.60000000       7.20000000      55.84500000      217        4
Co      10.80000000       5.40000000       9.00000000      58.93319400      218        1
Co      12.60000000       3.60000000       9.00000000      58.93319400      219        1
Ni      12.60000000       5.40000000       7.20000000      58.69340000      220        2
Cr      10.80000000       3.60000000      10.80000000      51.99610000      221        3
Cr      10.80000000       5.40000000      12.60000000      51.99610000      222        3
Co      12.60000000       3.60000000      12.60000000      58.93319400      223        1
Fe      12.60000000       5.40000000      10.80000000      55.84500000      224        4
Mn      10.80000000       7.20000000       0.00000000      54.93804400      225        5
Ni      10.80000000       9.00000000       1.80000000      58.69340000      226        2
Ni      12.60000000       7.20000000       1.80000000      58.69340000      227        2
Cr      12.60000000       9.00000000       0.00000000      51.99610000      228        3
Fe      10.80000000       7.20000000       3.60000000      55.84500000      229        4
Fe      10.80000000       9.00000000       5.40000000      55.84500000      230        4
Co      12.60000000       7.20000000       5.40000000      58.93319400      231        1
Fe      12.60000000       9.00000000       3.60000000      55.84500000      232        4
Cr      10.80000000       7.20000000       7.20000000      51.99610000      233        3
Fe      10.80000000       9.00000000       9.00000000      55.84500000      234        4
Fe      12.60000000       7.20000000       9.00000000      55.84500000      235        4
Ni      12.60000000       9.00000000       7.20000000      58.69340000      236        2
Cr      10.80000000       7.20000000      10.80000000      51.99610000      237        3
Mn      10.80000000       9.00000000      12.60000000      54.93804400      238        5
Co      12.60000000       7.20000000      12.60000000      58.93319400      239        1
Fe      12.60000000       9.00000000      10.80000000      55.84500000      240        4
Mn      10.80000000      10.80000000       0.00000000      54.93804400      241        5
Ni      10.80000000      12.60000000       1.80000000      58.69340000      242        2
Co      12.60000000      10.80000000       1.80000000      58.93319400      243        1
Ni      12.60000000      12.60000000       0.00000000      58.69340000      244        2
Fe      10.80000000      10.80000000       3.60000000      55.84500000      245        4
Fe      10.80000000      12.60000000       5.40000000      55.84500000      246        4
Co      12.60000000      10.80000000       5.40000000      58.93319400      247        1
Ni      12.60000000      12.60000000       3.60000000      58.69340000      248        2
Fe      10.80000000      10.80000000       7.20000000      55.84500000      249        4
Fe      10.80000000      12.60000000       9.00000000      55.84500000      250        4
Ni      12.60000000      10.80000000       9.00000000      58.69340000      251        2
Co      12.60000000      12.60000000       7.20000000      58.93319400      252        1
Co      10.80000000      10.80000000      10.80000000      58.93319400      253        1
Cr      10.80000000      12.60000000      12.60000000      51.99610000      254        3
Co      12.60000000      10.80000000      12.60000000      58.93319400      255        1
Fe      12.60000000      12.60000000      10.80000000      55.84500000      256        4
