256
Lattice="14.4 0.0 0.0 0.0 14.4 0.0 0.0 0.0 14.4" Properties=species:S:1:pos:R:3:masses:R:1:id:I:1:type:I:1 comment="(written by ASE)" energy=-1022.06955882528 pbc="T T T"
Mn       0.00000000       0.00000000       0.00000000      54.93804400        1        5
Co       0.00000000       1.80000000       1.80000000      58.93319400        2        1
Fe       1.80000000       0.00000000       1.80000000      55.84500000        3        4
Cr       1.80000000       1.80000000       0.00000000      51.99610000        4        3
Co       0.00000000       0.00000000       3.60000000      58.93319400        5        1
Co       0.00000000       1.80000000       5.40000000      58.93319400        6        1
Fe       1.80000000       0.00000000       5.40000000      55.84500000        7        4
Co       1.80000000       1.80000000       3.60000000      58.93319400        8        1
Ni       0.00000000       0.00000000       7.20000000      58.69340000        9        2
Co       0.00000000       1.80000000       9.00000000      58.93319400       10        1
Ni       1.80000000       0.00000000       9.00000000      58.69340000       11        2
Co       1.80000000       1.80000000       7.20000000      58.93319400       12        1
Fe       0.00000000       0.00000000      10.80000000      55.84500000       13        4
Mn       0.00000000       1.80000000      12.60000000      54.93804400       14        5
Fe       1.80000000       0.00000000      12.60000000      55.84500000       15        4
Co       1.80000000       1.80000000      10.80000000      58.93319400       16        1
Mn       0.00000000       3.60000000       0.00000000      54.93804400       17        5
Cr       0.00000000       5.40000000       1.80000000      51.99610000       18        3
Cr       1.80000000       3.60000000       1.80000000      51.99610000       19        3
Fe       1.80000000       5.40000000       0.00000000      55.84500000       20        4
Fe       0.00000000       3.60000000       3.60000000      55.84500000       21        4
Co       0.00000000       5.40000000       5.40000000      58.93319400       22        1
Fe       1.80000000       3.60000000       5.40000000      55.84500000       23        4
Cr       1.80000000       5.40000000       3.60000000      51.99610000       24        3
Fe       0.00000000       3.60000000       7.20000000      55.84500000       25        4
Co       0.00000000       5.40000000       9.00000000      58.93319400       26        1
Co       1.80000000       3.60000000       9.00000000      58.93319400       27        1
Co       1.80000000       5.40000000       7.20000000      58.93319400       28        1
Fe       0.00000000       3.60000000      10.80000000      55.84500000       29        4
Co       0.00000000       5.40000000      12.60000000      58.93319400       30        1
Fe       1.80000000       3.60000000      12.60000000      55.84500000       31        4
Co       1.80000000       5.40000000      10.80000000      58.93319400       32        1
Fe       0.00000000       7.20000000       0.00000000      55.84500000       33        4
Cr       0.00000000       9.00000000       1.80000000      51.99610000       34        3
Cr       1.80000000       7.20000000       1.80000000      51.99610000       35        3
Fe       1.80000000       9.00000000       0.00000000      55.84500000       36        4
Cr       0.00000000       7.20000000       3.60000000      51.99610000       37        3
Cr       0.00000000       9.00000000       5.40000000      51.99610000       38        3
Cr       1.80000000       7.20000000       5.40000000      51.99610000       39        3
Cr       1.80000000       9.00000000       3.60000000      51.99610000       40        3
Ni       0.00000000       7.20000000       7.20000000      58.69340000       41        2
Ni       0.00000000       9.00000000       9.00000000      58.69340000       42        2
Co       1.80000000       7.20000000       9.00000000      58.93319400       43        1
Fe       1.80000000       9.00000000       7.20000000      55.84500000       44        4
Fe       0.00000000       7.20000000      10.80000000      55.84500000       45        4
Co       0.00000000       9.00000000      12.60000000      58.93319400       46        1
Co       1.80000000       7.20000000      12.60000000      58.93319400       47        1
Co       1.80000000       9.00000000      10.80000000      58.93319400       48        1
Cr       0.00000000      10.80000000       0.00000000      51.99610000       49        3
Cr       0.00000000      12.60000000       1.80000000      51.99610000       50        3
Cr       1.80000000      10.80000000       1.80000000      51.99610000       51        3
Cr       1.80000000      12.60000000       0.00000000      51.99610000       52        3
Cr       0.00000000      10.80000000       3.60000000      51.99610000       53        3
Ni       0.00000000      12.60000000       5.40000000      58.69340000       54        2
Cr       1.80000000      10.80000000       5.40000000      51.99610000       55        3
Mn       1.80000000      12.60000000       3.60000000      54.93804400       56        5
Ni       0.00000000      10.80000000       7.20000000      58.69340000       57        2
Ni       0.00000000      12.60000000       9.00000000      58.69340000       58        2
Ni       1.80000000      10.80000000       9.00000000      58.69340000       59        2
Ni       1.80000000      12.60000000       7.20000000      58.69340000       60        2
Fe       0.00000000      10.80000000      10.80000000      55.84500000       61        4
Mn       0.00000000      12.60000000      12.60000000      54.93804400       62        5
Co       1.80000000      10.80000000      12.60000000      58.93319400       63        1
Co       1.80000000      12.60000000      10.80000000      58.93319400       64        1
Cr       3.60000000       0.00000000       0.00000000      51.99610000       65        3
Cr       3.60000000       1.80000000       1.80000000      51.99610000       66        3
Fe       5.40000000       0.00000000       1.80000000      55.84500000       67        4
Mn       5.40000000       1.80000000       0.00000000      54.93804400       68        5
Mn       3.60000000       0.00000000       3.60000000      54.93804400       69        5
Cr       3.60000000       1.80000000       5.40000000      51.99610000       70        3
Fe       5.40000000       0.00000000       5.40000000      55.84500000       71        4
Mn       5.40000000       1.80000000       3.60000000      54.93804400       72        5
Cr       3.60000000       0.00000000       7.20000000      51.99610000       73        3
Fe       3.60000000       1.80000000       9.00000000      55.84500000       74        4
Mn       5.40000000       0.00000000       9.00000000      54.93804400       75        5
Cr       5.40000000       1.80000000       7.20000000      51.99610000       76        3
Ni       3.60000000       0.00000000      10.80000000      58.69340000       77        2
Ni       3.60000000       1.80000000      12.60000000      58.69340000       78        2
Fe       5.40000000       0.00000000      12.60000000      55.84500000       79        4
Mn       5.40000000       1.80000000      10.80000000      54.93804400       80        5
Mn       3.60000000       3.60000000       0.00000000      54.93804400       81        5
Cr       3.60000000       5.40000000       1.80000000      51.99610000       82        3
Mn       5.40000000       3.60000000       1.80000000      54.93804400       83        5
Mn       5.40000000       5.40000000       0.00000000      54.93804400       84        5
Cr       3.60000000       3.60000000       3.60000000      51.99610000       85        3
Cr       3.60000000       5.40000000       5.40000000      51.99610000       86        3
Cr       5.40000000       3.60000000       5.40000000      51.99610000       87        3
Cr       5.40000000       5.40000000       3.60000000      51.99610000       88        3
Cr       3.60000000       3.60000000       7.20000000      51.99610000       89        3
Ni       3.60000000       5.40000000       9.00000000      58.69340000       90        2
Co       5.40000000       3.60000000       9.00000000      58.93319400       91        1
Cr       5.40000000       5.40000000       7.20000000      51.99610000       92        3
Fe       3.60000000       3.60000000      10.80000000      55.84500000       93        4
Ni       3.60000000       5.40000000      12.60000000      58.69340000       94        2
Mn       5.40000000       3.60000000      12.60000000      54.93804400       95        5
Fe       5.40000000       5.40000000      10.80000000      55.84500000       96        4
Mn       3.60000000       7.20000000       0.00000000      54.93804400       97        5
Cr       3.60000000       9.00000000       1.80000000      51.99610000       98        3
Cr       5.40000000       7.20000000       1.80000000      51.99610000       99        3
Cr       5.40000000       9.00000000       0.00000000      51.99610000      100        3
Cr       3.60000000       7.20000000       3.60000000      51.99610000      101        3
Cr       3.60000000       9.00000000       5.40000000      51.99610000      102        3
Cr       5.40000000       7.20000000       5.40000000      51.99610000      103        3
Cr       5.40000000       9.00000000       3.60000000      51.99610000      104        3
Fe       3.60000000       7.20000000       7.20000000      55.84500000      105        4
Co       3.60000000       9.00000000       9.00000000      58.93319400      106        1
Mn       5.40000000       7.20000000       9.00000000      54.93804400      107        5
Cr       5.40000000       9.00000000       7.20000000      51.99610000      108        3
Co       3.60000000       7.20000000      10.80000000      58.93319400      109        1
Fe       3.60000000       9.00000000      12.60000000      55.84500000      110        4
Mn       5.40000000       7.20000000      12.60000000      54.93804400      111        5
Fe       5.40000000       9.00000000      10.80000000      55.84500000      112        4
Co       3.60000000      10.80000000       0.00000000      58.93319400      113        1
Cr       3.60000000      12.60000000       1.80000000      51.99610000      114        3
Fe       5.40000000      10.80000000       1.80000000      55.84500000      115        4
Fe       5.40000000      12.60000000       0.00000000      55.84500000      116        4
Mn       3.60000000      10.80000000       3.60000000      54.93804400      117        5
Mn       3.60000000      12.60000000       5.40000000      54.93804400      118        5
Cr       5.40000000      10.80000000       5.40000000      51.99610000      119        3
Mn       5.40000000      12.60000000       3.60000000      54.93804400      120        5
Mn       3.60000000      10.80000000       7.20000000      54.93804400      121        5
Fe       3.60000000      12.60000000       9.00000000      55.84500000      122        4
Mn       5.40000000      10.80000000       9.00000000      54.93804400      123        5
Mn       5.40000000      12.60000000       7.20000000      54.93804400      124        5
Co       3.60000000      10.80000000      10.80000000      58.93319400      125        1
Co       3.60000000      12.60000000      12.60000000      58.93319400      126        1
Co       5.40000000      10.80000000      12.60000000      58.93319400      127        1
Fe       5.40000000      12.60000000      10.80000000      55.84500000      128        4
Mn       7.20000000       0.00000000       0.00000000      54.93804400      129        5
Mn       7.20000000       1.80000000       1.80000000      54.93804400      130        5
Fe       9.00000000       0.00000000       1.80000000      55.84500000      131        4
Mn       9.00000000       1.80000000       0.00000000      54.93804400      132        5
Co       7.20000000       0.00000000       3.60000000      58.93319400      133        1
Co       7.20000000       1.80000000       5.40000000      58.93319400      134        1
Co       9.00000000       0.00000000       5.40000000      58.93319400      135        1
Ni       9.00000000       1.80000000       3.60000000      58.69340000      136        2
Fe       7.20000000       0.00000000       7.20000000      55.84500000      137        4
Mn       7.20000000       1.80000000       9.00000000      54.93804400      138        5
Ni       9.00000000       0.00000000       9.00000000      58.69340000      139        2
Co       9.00000000       1.80000000       7.20000000      58.93319400      140        1
Mn       7.20000000       0.00000000      10.80000000      54.93804400      141        5
Mn       7.20000000       1.80000000      12.60000000      54.93804400      142        5
Mn       9.00000000       0.00000000      12.60000000      54.93804400      143        5
Mn       9.00000000       1.80000000      10.80000000      54.93804400      144        5
Mn       7.20000000       3.60000000       0.00000000      54.93804400      145        5
Mn       7.20000000       5.40000000       1.80000000      54.93804400      146        5
Fe       9.00000000       3.60000000       1.80000000      55.84500000      147        4
Mn       9.00000000       5.40000000       0.00000000      54.93804400      148        5
Cr       7.20000000       3.60000000       3.60000000      51.99610000      149        3
Cr       7.20000000       5.40000000       5.40000000      51.99610000      150        3
Fe       9.00000000       3.60000000       5.40000000      55.84500000      151        4
Mn       9.00000000       5.40000000       3.60000000      54.93804400      152        5
Fe       7.20000000       3.60000000       7.20000000      55.84500000      153        4
Ni       7.20000000       5.40000000       9.00000000      58.69340000      154        2
Co       9.00000000       3.60000000       9.00000000      58.93319400      155        1
Co       9.00000000       5.40000000       7.20000000      58.93319400      156        1
Fe       7.20000000       3.60000000      10.80000000      55.84500000      157        4
Mn       7.20000000       5.40000000      12.60000000      54.93804400      158        5
Mn       9.00000000       3.60000000      12.60000000      54.93804400      159        5
Fe       9.00000000       5.40000000      10.80000000      55.84500000      160        4
Mn       7.20000000       7.20000000       0.00000000      54.93804400      161        5
Mn       7.20000000       9.00000000       1.80000000      54.93804400      162        5
Fe       9.00000000       7.20000000       1.80000000      55.84500000      163        4
Mn       9.00000000       9.00000000       0.00000000      54.93804400      164        5
Cr       7.20000000       7.20000000       3.60000000      51.99610000      165        3
Cr       7.20000000       9.00000000       5.40000000      51.99610000      166        3
Fe       9.00000000       7.20000000       5.40000000      55.84500000      167        4
Mn       9.00000000       9.00000000       3.60000000      54.93804400      168        5
Cr       7.20000000       7.20000000       7.20000000      51.99610000      169        3
Mn       7.20000000       9.00000000       9.00000000      54.93804400      170        5
Ni       9.00000000       7.20000000       9.00000000      58.69340000      171        2
Mn       9.00000000       9.00000000       7.20000000      54.93804400      172        5
Mn       7.20000000       7.20000000      10.80000000      54.93804400      173        5
Mn       7.20000000       9.00000000      12.60000000      54.93804400      174        5
Mn       9.00000000       7.20000000      12.60000000      54.93804400      175        5
Fe       9.00000000       9.00000000      10.80000000      55.84500000      176        4
Cr       7.20000000      10.80000000       0.00000000      51.99610000      177        3
Co       7.20000000      12.60000000       1.80000000      58.93319400      178        1
Fe       9.00000000      10.80000000       1.80000000      55.84500000      179        4
Fe       9.00000000      12.60000000       0.00000000      55.84500000      180        4
Co       7.20000000      10.80000000       3.60000000      58.93319400      181        1
Co       7.20000000      12.60000000       5.40000000      58.93319400      182        1
Fe       9.00000000      10.80000000       5.40000000      55.84500000      183        4
Co       9.00000000      12.60000000       3.60000000      58.93319400      184        1
Mn       7.20000000      10.80000000       7.20000000      54.93804400      185        5
Ni       7.20000000      12.60000000       9.00000000      58.69340000      186        2
Ni       9.00000000      10.80000000       9.00000000      58.69340000      187        2
Ni       9.00000000      12.60000000       7.20000000      58.69340000      188        2
Ni       7.20000000      10.80000000      10.80000000      58.69340000      189        2
Mn       7.20000000      12.60000000      12.60000000      54.93804400      190        5
Mn       9.00000000      10.80000000      12.60000000      54.93804400      191        5
Fe       9.00000000      12.60000000      10.80000000      55.84500000      192        4
Ni      10.80000000       0.00000000       0.00000000      58.69340000      193        2
Co      10.80000000       1.80000000       1.80000000      58.93319400      194        1
Fe      12.60000000       0.00000000       1.80000000      55.84500000      195        4
Ni      12.60000000       1.80000000       0.00000000      58.69340000      196        2
Ni      10.80000000       0.00000000       3.60000000      58.69340000      197        2
Ni      10.80000000       1.80000000       5.40000000      58.69340000      198        2
Ni      12.60000000       0.00000000       5.40000000      58.69340000      199        2
Co      12.60000000       1.80000000       3.60000000      58.93319400      200        1
Ni      10.80000000       0.00000000       7.20000000      58.69340000      201        2
Fe      10.80000000       1.80000000       9.00000000      55.84500000      202        4
Ni      12.60000000       0.00000000       9.00000000      58.69340000      203        2
Ni      12.60000000       1.80000000       7.20000000      58.69340000      204        2
Mn      10.80000000       0.00000000      10.80000000      54.93804400      205        5
Ni      10.80000000       1.80000000      12.60000000      58.69340000      206        2
Fe      12.60000000       0.00000000      12.60000000      55.84500000      207        4
Mn      12.60000000       1.80000000      10.80000000      54.93804400      208        5
Fe      10.80000000       3.60000000       0.00000000      55.84500000      209        4
Co      10.80000000       5.40000000       1.80000000      58.93319400      210        1
Co      12.60000000       3.60000000       1.80000000      58.93319400      211        1
Co      12.60000000       5.40000000       0.00000000      58.93319400      212        1
Co      10.80000000       3.60000000       3.60000000      58.93319400      213        1
Fe      10.80000000       5.40000000       5.40000000      55.84500000      214        4
Ni      12.60000000       3.60000000       5.40000000      58.69340000      215        2
Co      12.60000000       5.40000000       3.60000000      58.93319400      216        1
Co      10.80000000       3.60000000       7.20000000      58.93319400      217        1
Ni      10.80000000       5.40000000       9.00000000      58.69340000      218        2
Co      12.60000000       3.60000000       9.00000000      58.93319400      219        1
Ni      12.60000000       5.40000000       7.20000000      58.69340000      220        2
Fe      10.80000000       3.60000000      10.80000000      55.84500000      221        4
Mn      10.80000000       5.40000000      12.60000000      54.93804400      222        5
Fe      12.60000000       3.60000000      12.60000000      55.84500000      223        4
Co      12.60000000       5.40000000      10.80000000      58.93319400      224        1
Cr      10.80000000       7.20000000       0.00000000      51.99610000      225        3
Mn      10.80000000       9.00000000       1.80000000      54.93804400      226        5
Fe      12.60000000       7.20000000       1.80000000      55.84500000      227        4
Mn      12.60000000       9.00000000       0.00000000      54.93804400      228        5
Co      10.80000000       7.20000000       3.60000000      58.93319400      229        1
Ni      10.80000000       9.00000000       5.40000000      58.69340000      230        2
Fe      12.60000000       7.20000000       5.40000000      55.84500000      231        4
Cr      12.60000000       9.00000000       3.60000000      51.99610000      232        3
Ni      10.80000000       7.20000000       7.20000000      58.69340000      233        2
Ni      10.80000000       9.00000000       9.00000000      58.69340000      234        2
Ni      12.60000000       7.20000000       9.00000000      58.69340000      235        2
Ni      12.60000000       9.00000000       7.20000000      58.69340000      236        2
Ni      10.80000000       7.20000000      10.80000000      58.69340000      237        2
Fe      10.80000000       9.00000000      12.60000000      55.84500000      238        4
Co      12.60000000       7.20000000      12.60000000      58.93319400      239        1
Ni      12.60000000       9.00000000      10.80000000      58.69340000      240        2
Mn      10.80000000      10.80000000       0.00000000      54.93804400      241        5
Mn      10.80000000      12.60000000       1.80000000      54.93804400      242        5
Cr      12.60000000      10.80000000       1.80000000      51.99610000      243        3
Mn      12.60000000      12.60000000       0.00000000      54.93804400      244        5
Mn      10.80000000      10.80000000       3.60000000      54.93804400      245        5
Ni      10.80000000      12.60000000       5.40000000      58.69340000      246        2
Fe      12.60000000      10.80000000       5.40000000      55.84500000      247        4
Co      12.60000000      12.60000000       3.60000000      58.93319400      248        1
Ni      10.80000000      10.80000000       7.20000000      58.69340000      249        2
Ni      10.80000000      12.60000000       9.00000000      58.69340000      250        2
Ni      12.60000000      10.80000000       9.00000000      58.69340000      251        2
Ni      12.60000000      12.60000000       7.20000000      58.69340000      252        2
Ni      10.80000000      10.80000000      10.80000000      58.69340000      253        2
Mn      10.80000000      12.60000000      12.60000000      54.93804400      254        5
Mn      12.60000000      10.80000000      12.60000000      54.93804400      255        5
Mn      12.60000000      12.60000000      10.80000000      54.93804400      256        5
