256
Lattice="14.4 0.0 0.0 0.0 14.4 0.0 0.0 0.0 14.4" Properties=species:S:1:pos:R:3:masses:R:1:id:I:1:type:I:1 comment="(written by ASE)" energy=-1023.84330330211 pbc="T T T"
Ni       0.00000000       0.00000000       0.00000000      58.69340000        1        2
Mn       0.00000000       1.80000000       1.80000000      54.93804400        2        5
Co       1.80000000       0.00000000       1.80000000      58.93319400        3        1
Ni       1.80000000       1.80000000       0.00000000      58.69340000        4        2
Co       0.00000000       0.00000000       3.60000000      58.93319400        5        1
Co       0.00000000       1.80000000       5.40000000      58.93319400        6        1
Co       1.80000000       0.00000000       5.40000000      58.93319400        7        1
Mn       1.80000000       1.80000000       3.60000000      54.93804400        8        5
Ni       0.00000000       0.00000000       7.20000000      58.69340000        9        2
Ni       0.00000000       1.80000000       9.00000000      58.69340000       10        2
Ni       1.80000000       0.00000000       9.00000000      58.69340000       11        2
Mn       1.80000000       1.80000000       7.20000000      54.93804400       12        5
Ni       0.00000000       0.00000000      10.80000000      58.69340000       13        2
Ni       0.00000000       1.80000000      12.60000000      58.69340000       14        2
Ni       1.80000000       0.00000000      12.60000000      58.69340000       15        2
Ni       1.80000000       1.80000000      10.80000000      58.69340000       16        2
Ni       0.00000000       3.60000000       0.00000000      58.69340000       17        2
Cr       0.00000000       5.40000000       1.80000000      51.99610000       18        3
Cr       1.80000000       3.60000000       1.80000000      51.99610000       19        3
Mn       1.80000000       5.40000000       0.00000000      54.93804400       20        5
Cr       0.00000000       3.60000000       3.60000000      51.99610000       21        3
Fe       0.00000000       5.40000000       5.40000000      55.84500000       22        4
Fe       1.80000000       3.60000000       5.40000000      55.84500000       23        4
Fe       1.80000000       5.40000000       3.60000000      55.84500000       24        4
Fe       0.00000000       3.60000000       7.20000000      55.84500000       25        4
Fe       0.00000000       5.40000000       9.00000000      55.84500000       26        4
Co       1.80000000       3.60000000       9.00000000      58.93319400       27        1
Fe       1.80000000       5.40000000       7.20000000      55.84500000       28        4
Mn       0.00000000       3.60000000      10.80000000      54.93804400       29        5
Cr       0.00000000       5.40000000      12.60000000      51.99610000       30        3
Ni       1.80000000       3.60000000      12.60000000      58.69340000       31        2
Cr       1.80000000       5.40000000      10.80000000      51.99610000       32        3
Cr       0.00000000       7.20000000       0.00000000      51.99610000       33        3
Mn       0.00000000       9.00000000       1.80000000      54.93804400       34        5
Cr       1.80000000       7.20000000       1.80000000      51.99610000       35        3
Cr       1.80000000       9.00000000       0.00000000      51.99610000       36        3
Cr       0.00000000       7.20000000       3.60000000      51.99610000       37        3
Mn       0.00000000       9.00000000       5.40000000      54.93804400       38        5
Fe       1.80000000       7.20000000       5.40000000      55.84500000       39        4
Mn       1.80000000       9.00000000       3.60000000      54.93804400       40        5
Fe       0.00000000       7.20000000       7.20000000      55.84500000       41        4
Co       0.00000000       9.00000000       9.00000000      58.93319400       42        1
Fe       1.80000000       7.20000000       9.00000000      55.84500000       43        4
Co       1.80000000       9.00000000       7.20000000      58.93319400       44        1
Fe       0.00000000       7.20000000      10.80000000      55.84500000       45        4
Ni       0.00000000       9.00000000      12.60000000      58.69340000       46        2
Mn       1.80000000       7.20000000      12.60000000      54.93804400       47        5
Mn       1.80000000       9.00000000      10.80000000      54.93804400       48        5
Cr       0.00000000      10.80000000       0.00000000      51.99610000       49        3
Fe       0.00000000      12.60000000       1.80000000      55.84500000       50        4
Cr       1.80000000      10.80000000       1.80000000      51.99610000       51        3
Ni       1.80000000      12.60000000       0.00000000      58.69340000       52        2
Fe       0.00000000      10.80000000       3.60000000      55.84500000       53        4
Ni       0.00000000      12.60000000       5.40000000      58.69340000       54        2
Co       1.80000000      10.80000000       5.40000000      58.93319400       55        1
Mn       1.80000000      12.60000000       3.60000000      54.93804400       56        5
Mn       0.00000000      10.80000000       7.20000000      54.93804400       57        5
Ni       0.00000000      12.60000000       9.00000000      58.69340000       58        2
Ni       1.80000000      10.80000000       9.00000000      58.69340000       59        2
Ni       1.80000000      12.60000000       7.20000000      58.69340000       60        2
Ni       0.00000000      10.80000000      10.80000000      58.69340000       61        2
Ni       0.00000000      12.60000000      12.60000000      58.69340000       62        2
Ni       1.80000000      10.80000000      12.60000000      58.69340000       63        2
Ni       1.80000000      12.60000000      10.80000000      58.69340000       64        2
Cr       3.60000000       0.00000000       0.00000000      51.99610000       65        3
Mn       3.60000000       1.80000000       1.80000000      54.93804400       66        5
Fe       5.40000000       0.00000000       1.80000000      55.84500000       67        4
Cr       5.40000000       1.80000000       0.00000000      51.99610000       68        3
Co       3.60000000       0.00000000       3.60000000      58.93319400       69        1
Co       3.60000000       1.80000000       5.40000000      58.93319400       70        1
Mn       5.40000000       0.00000000       5.40000000      54.93804400       71        5
Fe       5.40000000       1.80000000       3.60000000      55.84500000       72        4
Co       3.60000000       0.00000000       7.20000000      58.93319400       73        1
Mn       3.60000000       1.80000000       9.00000000      54.93804400       74        5
Mn       5.40000000       0.00000000       9.00000000      54.93804400       75        5
Co       5.40000000       1.80000000       7.20000000      58.93319400       76        1
Ni       3.60000000       0.00000000      10.80000000      58.69340000       77        2
Ni       3.60000000       1.80000000      12.60000000      58.69340000       78        2
Mn       5.40000000       0.00000000      12.60000000      54.93804400       79        5
Co       5.40000000       1.80000000      10.80000000      58.93319400       80        1
Cr       3.60000000       3.60000000       0.00000000      51.99610000       81        3
Mn       3.60000000       5.40000000       1.80000000      54.93804400       82        5
Mn       5.40000000       3.60000000       1.80000000      54.93804400       83        5
Ni       5.40000000       5.40000000       0.00000000      58.69340000       84        2
Fe       3.60000000       3.60000000       3.60000000      55.84500000       85        4
Fe       3.60000000       5.40000000       5.40000000      55.84500000       86        4
Co       5.40000000       3.60000000       5.40000000      58.93319400       87        1
Co       5.40000000       5.40000000       3.60000000      58.93319400       88        1
Co       3.60000000       3.60000000       7.20000000      58.93319400       89        1
Mn       3.60000000       5.40000000       9.00000000      54.93804400       90        5
Ni       5.40000000       3.60000000       9.00000000      58.69340000       91        2
Mn       5.40000000       5.40000000       7.20000000      54.93804400       92        5
Ni       3.60000000       3.60000000      10.80000000      58.69340000       93        2
Ni       3.60000000       5.40000000      12.60000000      58.69340000       94        2
Mn       5.40000000       3.60000000      12.60000000      54.93804400       95        5
Ni       5.40000000       5.40000000      10.80000000      58.69340000       96        2
Co       3.60000000       7.20000000       0.00000000      58.93319400       97        1
Fe       3.60000000       9.00000000       1.80000000      55.84500000       98        4
Ni       5.40000000       7.20000000       1.80000000      58.69340000       99        2
Mn       5.40000000       9.00000000       0.00000000      54.93804400      100        5
Cr       3.60000000       7.20000000       3.60000000      51.99610000      101        3
Fe       3.60000000       9.00000000       5.40000000      55.84500000      102        4
Fe       5.40000000       7.20000000       5.40000000      55.84500000      103        4
Mn       5.40000000       9.00000000       3.60000000      54.93804400      104        5
Fe       3.60000000       7.20000000       7.20000000      55.84500000      105        4
Mn       3.60000000       9.00000000       9.00000000      54.93804400      106        5
Co       5.40000000       7.20000000       9.00000000      58.93319400      107        1
Fe       5.40000000       9.00000000       7.20000000      55.84500000      108        4
Ni       3.60000000       7.20000000      10.80000000      58.69340000      109        2
Co       3.60000000       9.00000000      12.60000000      58.93319400      110        1
Mn       5.40000000       7.20000000      12.60000000      54.93804400      111        5
Mn       5.40000000       9.00000000      10.80000000      54.93804400      112        5
Mn       3.60000000      10.80000000       0.00000000      54.93804400      113        5
Fe       3.60000000      12.60000000       1.80000000      55.84500000      114        4
Cr       5.40000000      10.80000000       1.80000000      51.99610000      115        3
Fe       5.40000000      12.60000000       0.00000000      55.84500000      116        4
Fe       3.60000000      10.80000000       3.60000000      55.84500000      117        4
Co       3.60000000      12.60000000       5.40000000      58.93319400      118        1
Co       5.40000000      10.80000000       5.40000000      58.93319400      119        1
Co       5.40000000      12.60000000       3.60000000      58.93319400      120        1
Mn       3.60000000      10.80000000       7.20000000      54.93804400      121        5
Ni       3.60000000      12.60000000       9.00000000      58.69340000      122        2
Co       5.40000000      10.80000000       9.00000000      58.93319400      123        1
Co       5.40000000      12.60000000       7.20000000      58.93319400      124        1
Co       3.60000000      10.80000000      10.80000000      58.93319400      125        1
Co       3.60000000      12.60000000      12.60000000      58.93319400      126        1
Co       5.40000000      10.80000000      12.60000000      58.93319400      127        1
Mn       5.40000000      12.60000000      10.80000000      54.93804400      128        5
Cr       7.20000000       0.00000000       0.00000000      51.99610000      129        3
Cr       7.20000000       1.80000000       1.80000000      51.99610000      130        3
Mn       9.00000000       0.00000000       1.80000000      54.93804400      131        5
Cr       9.00000000       1.80000000       0.00000000      51.99610000      132        3
Co       7.20000000       0.00000000       3.60000000      58.93319400      133        1
Co       7.20000000       1.80000000       5.40000000      58.93319400      134        1
Mn       9.00000000       0.00000000       5.40000000      54.93804400      135        5
Mn       9.00000000       1.80000000       3.60000000      54.93804400      136        5
Co       7.20000000       0.00000000       7.20000000      58.93319400      137        1
Mn       7.20000000       1.80000000       9.00000000      54.93804400      138        5
Co       9.00000000       0.00000000       9.00000000      58.93319400      139        1
Co       9.00000000       1.80000000       7.20000000      58.93319400      140        1
Fe       7.20000000       0.00000000      10.80000000      55.84500000      141        4
Mn       7.20000000       1.80000000      12.60000000      54.93804400      142        5
Cr       9.00000000       0.00000000      12.60000000      51.99610000      143        3
Mn       9.00000000       1.80000000      10.80000000      54.93804400      144        5
Cr       7.20000000       3.60000000       0.00000000      51.99610000      145        3
Ni       7.20000000       5.40000000       1.80000000      58.69340000      146        2
Cr       9.00000000       3.60000000       1.80000000      51.99610000      147        3
Cr       9.00000000       5.40000000       0.00000000      51.99610000      148        3
Mn       7.20000000       3.60000000       3.60000000      54.93804400      149        5
Mn       7.20000000       5.40000000       5.40000000      54.93804400      150        5
Co       9.00000000       3.60000000       5.40000000      58.93319400      151        1
Cr       9.00000000       5.40000000       3.60000000      51.99610000      152        3
Co       7.20000000       3.60000000       7.20000000      58.93319400      153        1
Co       7.20000000       5.40000000       9.00000000      58.93319400      154        1
Mn       9.00000000       3.60000000       9.00000000      54.93804400      155        5
Fe       9.00000000       5.40000000       7.20000000      55.84500000      156        4
Co       7.20000000       3.60000000      10.80000000      58.93319400      157        1
Mn       7.20000000       5.40000000      12.60000000      54.93804400      158        5
Cr       9.00000000       3.60000000      12.60000000      51.99610000      159        3
Fe       9.00000000       5.40000000      10.80000000      55.84500000      160        4
Ni       7.20000000       7.20000000       0.00000000      58.69340000      161        2
Cr       7.20000000       9.00000000       1.80000000      51.99610000      162        3
Ni       9.00000000       7.20000000       1.80000000      58.69340000      163        2
Cr       9.00000000       9.00000000       0.00000000      51.99610000      164        3
Ni       7.20000000       7.20000000       3.60000000      58.69340000      165        2
Cr       7.20000000       9.00000000       5.40000000      51.99610000      166        3
Cr       9.00000000       7.20000000       5.40000000      51.99610000      167        3
Cr       9.00000000       9.00000000       3.60000000      51.99610000      168        3
Fe       7.20000000       7.20000000       7.20000000      55.84500000      169        4
Fe       7.20000000       9.00000000       9.00000000      55.84500000      170        4
Fe       9.00000000       7.20000000       9.00000000      55.84500000      171        4
Fe       9.00000000       9.00000000       7.20000000      55.84500000      172        4
Mn       7.20000000       7.20000000      10.80000000      54.93804400      173        5
Cr       7.20000000       9.00000000      12.60000000      51.99610000      174        3
Cr       9.00000000       7.20000000      12.60000000      51.99610000      175        3
Fe       9.00000000       9.00000000      10.80000000      55.84500000      176        4
Fe       7.20000000      10.80000000       0.00000000      55.84500000      177        4
Mn       7.20000000      12.60000000       1.80000000      54.93804400      178        5
Cr       9.00000000      10.80000000       1.80000000      51.99610000      179        3
Cr       9.00000000      12.60000000       0.00000000      51.99610000      180        3
Mn       7.20000000      10.80000000       3.60000000      54.93804400      181        5
Co       7.20000000      12.60000000       5.40000000      58.93319400      182        1
Mn       9.00000000      10.80000000       5.40000000      54.93804400      183        5
Co       9.00000000      12.60000000       3.60000000      58.93319400      184        1
Mn       7.20000000      10.80000000       7.20000000      54.93804400      185        5
Co       7.20000000      12.60000000       9.00000000      58.93319400      186        1
Co       9.00000000      10.80000000       9.00000000      58.93319400      187        1
Mn       9.00000000      12.60000000       7.20000000      54.93804400      188        5
Fe       7.20000000      10.80000000      10.80000000      55.84500000      189        4
Cr       7.20000000      12.60000000      12.60000000      51.99610000      190        3
Fe       9.00000000      10.80000000      12.60000000      55.84500000      191        4
Mn       9.00000000      12.60000000      10.80000000      54.93804400      192        5
Cr      10.80000000       0.00000000       0.00000000      51.99610000      193        3
Cr      10.80000000       1.80000000       1.80000000      51.99610000      194        3
Mn      12.60000000       0.00000000       1.80000000      54.93804400      195        5
Ni      12.60000000       1.80000000       0.00000000      58.69340000      196        2
Co      10.80000000       0.00000000       3.60000000      58.93319400      197        1
Co      10.80000000       1.80000000       5.40000000      58.93319400      198        1
Ni      12.60000000       0.00000000       5.40000000      58.69340000      199        2
Mn      12.60000000       1.80000000       3.60000000      54.93804400      200        5
Ni      10.80000000       0.00000000       7.20000000      58.69340000      201        2
Mn      10.80000000       1.80000000       9.00000000      54.93804400      202        5
Ni      12.60000000       0.00000000       9.00000000      58.69340000      203        2
Ni      12.60000000       1.80000000       7.20000000      58.69340000      204        2
Co      10.80000000       0.00000000      10.80000000      58.93319400      205        1
Mn      10.80000000       1.80000000      12.60000000      54.93804400      206        5
Ni      12.60000000       0.00000000      12.60000000      58.69340000      207        2
Ni      12.60000000       1.80000000      10.80000000      58.69340000      208        2
Cr      10.80000000       3.60000000       0.00000000      51.99610000      209        3
Cr      10.80000000       5.40000000       1.80000000      51.99610000      210        3
Mn      12.60000000       3.60000000       1.80000000      54.93804400      211        5
Cr      12.60000000       5.40000000       0.00000000      51.99610000      212        3
Mn      10.80000000       3.60000000       3.60000000      54.93804400      213        5
Fe      10.80000000       5.40000000       5.40000000      55.84500000      214        4
Fe      12.60000000       3.60000000       5.40000000      55.84500000      215        4
Cr      12.60000000       5.40000000       3.60000000      51.99610000      216        3
Fe      10.80000000       3.60000000       7.20000000      55.84500000      217        4
Fe      10.80000000       5.40000000       9.00000000      55.84500000      218        4
Mn      12.60000000       3.60000000       9.00000000      54.93804400      219        5
Fe      12.60000000       5.40000000       7.20000000      55.84500000      220        4
Cr      10.80000000       3.60000000      10.80000000      51.99610000      221        3
Cr      10.80000000       5.40000000      12.60000000      51.99610000      222        3
Mn      12.60000000       3.60000000      12.60000000      54.93804400      223        5
Cr      12.60000000       5.40000000      10.80000000      51.99610000      224        3
Fe      10.80000000       7.20000000       0.00000000      55.84500000      225        4
Fe      10.80000000       9.00000000       1.80000000      55.84500000      226        4
Cr      12.60000000       7.20000000       1.80000000      51.99610000      227        3
Fe      12.60000000       9.00000000       0.00000000      55.84500000      228        4
Fe      10.80000000       7.20000000       3.60000000      55.84500000      229        4
Fe      10.80000000       9.00000000       5.40000000      55.84500000      230        4
Fe      12.60000000       7.20000000       5.40000000      55.84500000      231        4
Cr      12.60000000       9.00000000       3.60000000      51.99610000      232        3
Fe      10.80000000       7.20000000       7.20000000      55.84500000      233        4
Mn      10.80000000       9.00000000       9.00000000      54.93804400      234        5
Fe      12.60000000       7.20000000       9.00000000      55.84500000      235        4
Co      12.60000000       9.00000000       7.20000000      58.93319400      236        1
Fe      10.80000000       7.20000000      10.80000000      55.84500000      237        4
Fe      10.80000000       9.00000000      12.60000000      55.84500000      238        4
Mn      12.60000000       7.20000000      12.60000000      54.93804400      239        5
Co      12.60000000       9.00000000      10.80000000      58.93319400      240        1
Fe      10.80000000      10.80000000       0.00000000      55.84500000      241        4
Mn      10.80000000      12.60000000       1.80000000      54.93804400      242        5
Fe      12.60000000      10.80000000       1.80000000      55.84500000      243        4
Cr      12.60000000      12.60000000       0.00000000      51.99610000      244        3
Fe      10.80000000      10.80000000       3.60000000      55.84500000      245        4
Co      10.80000000      12.60000000       5.40000000      58.93319400      246        1
Mn      12.60000000      10.80000000       5.40000000      54.93804400      247        5
Co      12.60000000      12.60000000       3.60000000      58.93319400      248        1
Co      10.80000000      10.80000000       7.20000000      58.93319400      249        1
Ni      10.80000000      12.60000000       9.00000000      58.69340000      250        2
Ni      12.60000000      10.80000000       9.00000000      58.69340000      251        2
Ni      12.60000000      12.60000000       7.20000000      58.69340000      252        2
Co      10.80000000      10.80000000      10.80000000      58.93319400      253        1
Mn      10.80000000      12.60000000      12.60000000      54.93804400      254        5
Mn      12.60000000      10.80000000      12.60000000      54.93804400      255        5
Ni      12.60000000      12.60000000      10.80000000      58.69340000      256        2
