256
Lattice="14.4 0.0 0.0 0.0 14.4 0.0 0.0 0.0 14.4" Properties=species:S:1:pos:R:3:masses:R:1:id:I:1:type:I:1 comment="(written by ASE)" energy=-1022.62904207282 pbc="T T T"
Mn       0.00000000       0.00000000       0.00000000      54.93804400        1        5
Mn       0.00000000       1.80000000       1.80000000      54.93804400        2        5
Cr       1.80000000       0.00000000       1.80000000      51.99610000        3        3
Fe       1.80000000       1.80000000       0.00000000      55.84500000        4        4
Ni       0.00000000       0.00000000       3.60000000      58.69340000        5        2
Co       0.00000000       1.80000000       5.40000000      58.93319400        6        1
Co       1.80000000       0.00000000       5.40000000      58.93319400        7        1
Fe       1.80000000       1.80000000       3.60000000      55.84500000        8        4
Co       0.00000000       0.00000000       7.20000000      58.93319400        9        1
Ni       0.00000000       1.80000000       9.00000000      58.69340000       10        2
Co       1.80000000       0.00000000       9.00000000      58.93319400       11        1
Co       1.80000000       1.80000000       7.20000000      58.93319400       12        1
Co       0.00000000       0.00000000      10.80000000      58.93319400       13        1
Mn       0.00000000       1.80000000      12.60000000      54.93804400       14        5
Cr       1.80000000       0.00000000      12.60000000      51.99610000       15        3
Fe       1.80000000       1.80000000      10.80000000      55.84500000       16        4
Mn       0.00000000       3.60000000       0.00000000      54.93804400       17        5
Fe       0.00000000       5.40000000       1.80000000      55.84500000       18        4
Cr       1.80000000       3.60000000       1.80000000      51.99610000       19        3
Cr       1.80000000       5.40000000       0.00000000      51.99610000       20        3
Ni       0.00000000       3.60000000       3.60000000      58.69340000       21        2
Ni       0.00000000       5.40000000       5.40000000      58.69340000       22        2
Co       1.80000000       3.60000000       5.40000000      58.93319400       23        1
Co       1.80000000       5.40000000       3.60000000      58.93319400       24        1
Fe       0.00000000       3.60000000       7.20000000      55.84500000       25        4
Cr       0.00000000       5.40000000       9.00000000      51.99610000       26        3
Cr       1.80000000       3.60000000       9.00000000      51.99610000       27        3
Ni       1.80000000       5.40000000       7.20000000      58.69340000       28        2
Fe       0.00000000       3.60000000      10.80000000      55.84500000       29        4
Fe       0.00000000       5.40000000      12.60000000      55.84500000       30        4
Cr       1.80000000       3.60000000      12.60000000      51.99610000       31        3
Ni       1.80000000       5.40000000      10.80000000      58.69340000       32        2
Ni       0.00000000       7.20000000       0.00000000      58.69340000       33        2
Fe       0.00000000       9.00000000       1.80000000      55.84500000       34        4
Ni       1.80000000       7.20000000       1.80000000      58.69340000       35        2
Co       1.80000000       9.00000000       0.00000000      58.93319400       36        1
Mn       0.00000000       7.20000000       3.60000000      54.93804400       37        5
Mn       0.00000000       9.00000000       5.40000000      54.93804400       38        5
Cr       1.80000000       7.20000000       5.40000000      51.99610000       39        3
Co       1.80000000       9.00000000       3.60000000      58.93319400       40        1
Fe       0.00000000       7.20000000       7.20000000      55.84500000       41        4
Co       0.00000000       9.00000000       9.00000000      58.93319400       42        1
Co       1.80000000       7.20000000       9.00000000      58.93319400       43        1
Mn       1.80000000       9.00000000       7.20000000      54.93804400       44        5
Co       0.00000000       7.20000000      10.80000000      58.93319400       45        1
Co       0.00000000       9.00000000      12.60000000      58.93319400       46        1
Ni       1.80000000       7.20000000      12.60000000      58.69340000       47        2
Fe       1.80000000       9.00000000      10.80000000      55.84500000       48        4
Ni       0.00000000      10.80000000       0.00000000      58.69340000       49        2
Ni       0.00000000      12.60000000       1.80000000      58.69340000       50        2
Fe       1.80000000      10.80000000       1.80000000      55.84500000       51        4
Fe       1.80000000      12.60000000       0.00000000      55.84500000       52        4
Ni       0.00000000      10.80000000       3.60000000      58.69340000       53        2
Co       0.00000000      12.60000000       5.40000000      58.93319400       54        1
Co       1.80000000      10.80000000       5.40000000      58.93319400       55        1
Fe       1.80000000      12.60000000       3.60000000      55.84500000       56        4
Co       0.00000000      10.80000000       7.20000000      58.93319400       57        1
Co       0.00000000      12.60000000       9.00000000      58.93319400       58        1
Ni       1.80000000      10.80000000       9.00000000      58.69340000       59        2
Fe       1.80000000      12.60000000       7.20000000      55.84500000       60        4
Ni       0.00000000      10.80000000      10.80000000      58.69340000       61        2
Mn       0.00000000      12.60000000      12.60000000      54.93804400       62        5
Fe       1.80000000      10.80000000      12.60000000      55.84500000       63        4
Fe       1.80000000      12.60000000      10.80000000      55.84500000       64        4
Ni       3.60000000       0.00000000       0.00000000      58.69340000       65        2
Ni       3.60000000       1.80000000       1.80000000      58.69340000       66        2
Fe       5.40000000       0.00000000       1.80000000      55.84500000       67        4
Co       5.40000000       1.80000000       0.00000000      58.93319400       68        1
Ni       3.60000000       0.00000000       3.60000000      58.69340000       69        2
Co       3.60000000       1.80000000       5.40000000      58.93319400       70        1
Fe       5.40000000       0.00000000       5.40000000      55.84500000       71        4
Co       5.40000000       1.80000000       3.60000000      58.93319400       72        1
Co       3.60000000       0.00000000       7.20000000      58.93319400       73        1
Co       3.60000000       1.80000000       9.00000000      58.93319400       74        1
Fe       5.40000000       0.00000000       9.00000000      55.84500000       75        4
Ni       5.40000000       1.80000000       7.20000000      58.69340000       76        2
Co       3.60000000       0.00000000      10.80000000      58.93319400       77        1
Co       3.60000000       1.80000000      12.60000000      58.93319400       78        1
Fe       5.40000000       0.00000000      12.60000000      55.84500000       79        4
Ni       5.40000000       1.80000000      10.80000000      58.69340000       80        2
Ni       3.60000000       3.60000000       0.00000000      58.69340000       81        2
Ni       3.60000000       5.40000000       1.80000000      58.69340000       82        2
Fe       5.40000000       3.60000000       1.80000000      55.84500000       83        4
Cr       5.40000000       5.40000000       0.00000000      51.99610000       84        3
Ni       3.60000000       3.60000000       3.60000000      58.69340000       85        2
Ni       3.60000000       5.40000000       5.40000000      58.69340000       86        2
Fe       5.40000000       3.60000000       5.40000000      55.84500000       87        4
Co       5.40000000       5.40000000       3.60000000      58.93319400       88        1
Fe       3.60000000       3.60000000       7.20000000      55.84500000       89        4
Ni       3.60000000       5.40000000       9.00000000      58.69340000       90        2
Co       5.40000000       3.60000000       9.00000000      58.93319400       91        1
Ni       5.40000000       5.40000000       7.20000000      58.69340000       92        2
Fe       3.60000000       3.60000000      10.80000000      55.84500000       93        4
Mn       3.60000000       5.40000000      12.60000000      54.93804400       94        5
Fe       5.40000000       3.60000000      12.60000000      55.84500000       95        4
Mn       5.40000000       5.40000000      10.80000000      54.93804400       96        5
Fe       3.60000000       7.20000000       0.00000000      55.84500000       97        4
Cr       3.60000000       9.00000000       1.80000000      51.99610000       98        3
Mn       5.40000000       7.20000000       1.80000000      54.93804400       99        5
Mn       5.40000000       9.00000000       0.00000000      54.93804400      100        5
Fe       3.60000000       7.20000000       3.60000000      55.84500000      101        4
Mn       3.60000000       9.00000000       5.40000000      54.93804400      102        5
Fe       5.40000000       7.20000000       5.40000000      55.84500000      103        4
Mn       5.40000000       9.00000000       3.60000000      54.93804400      104        5
Fe       3.60000000       7.20000000       7.20000000      55.84500000      105        4
Mn       3.60000000       9.00000000       9.00000000      54.93804400      106        5
Cr       5.40000000       7.20000000       9.00000000      51.99610000      107        3
Mn       5.40000000       9.00000000       7.20000000      54.93804400      108        5
Fe       3.60000000       7.20000000      10.80000000      55.84500000      109        4
Ni       3.60000000       9.00000000      12.60000000      58.69340000      110        2
Cr       5.40000000       7.20000000      12.60000000      51.99610000      111        3
Mn       5.40000000       9.00000000      10.80000000      54.93804400      112        5
Co       3.60000000      10.80000000       0.00000000      58.93319400      113        1
Ni       3.60000000      12.60000000       1.80000000      58.69340000      114        2
Fe       5.40000000      10.80000000       1.80000000      55.84500000      115        4
Co       5.40000000      12.60000000       0.00000000      58.93319400      116        1
Ni       3.60000000      10.80000000       3.60000000      58.69340000      117        2
Co       3.60000000      12.60000000       5.40000000      58.93319400      118        1
Fe       5.40000000      10.80000000       5.40000000      55.84500000      119        4
Co       5.40000000      12.60000000       3.60000000      58.93319400      120        1
Cr       3.60000000      10.80000000       7.20000000      51.99610000      121        3
Ni       3.60000000      12.60000000       9.00000000      58.69340000      122        2
Fe       5.40000000      10.80000000       9.00000000      55.84500000      123        4
Ni       5.40000000      12.60000000       7.20000000      58.69340000      124        2
Cr       3.60000000      10.80000000      10.80000000      51.99610000      125        3
Ni       3.60000000      12.60000000      12.60000000      58.69340000      126        2
Fe       5.40000000      10.80000000      12.60000000      55.84500000      127        4
Mn       5.40000000      12.60000000      10.80000000      54.93804400      128        5
Mn       7.20000000       0.00000000       0.00000000      54.93804400      129        5
Ni       7.20000000       1.80000000       1.80000000      58.69340000      130        2
Cr       9.00000000       0.00000000       1.80000000      51.99610000      131        3
Mn       9.00000000       1.80000000       0.00000000      54.93804400      132        5
Ni       7.20000000       0.00000000       3.60000000      58.69340000      133        2
Co       7.20000000       1.80000000       5.40000000      58.93319400      134        1
Co       9.00000000       0.00000000       5.40000000      58.93319400      135        1
Fe       9.00000000       1.80000000       3.60000000      55.84500000      136        4
Co       7.20000000       0.00000000       7.20000000      58.93319400      137        1
Mn       7.20000000       1.80000000       9.00000000      54.93804400      138        5
Cr       9.00000000       0.00000000       9.00000000      51.99610000      139        3
Fe       9.00000000       1.80000000       7.20000000      55.84500000      140        4
Cr       7.20000000       0.00000000      10.80000000      51.99610000      141        3
Mn       7.20000000       1.80000000      12.60000000      54.93804400      142        5
Cr       9.00000000       0.00000000      12.60000000      51.99610000      143        3
Mn       9.00000000       1.80000000      10.80000000      54.93804400      144        5
Cr       7.20000000       3.60000000       0.00000000      51.99610000      145        3
Mn       7.20000000       5.40000000       1.80000000      54.93804400      146        5
Mn       9.00000000       3.60000000       1.80000000      54.93804400      147        5
Cr       9.00000000       5.40000000       0.00000000      51.99610000      148        3
Co       7.20000000       3.60000000       3.60000000      58.93319400      149        1
Ni       7.20000000       5.40000000       5.40000000      58.69340000      150        2
Co       9.00000000       3.60000000       5.40000000      58.93319400      151        1
Mn       9.00000000       5.40000000       3.60000000      54.93804400      152        5
Co       7.20000000       3.60000000       7.20000000      58.93319400      153        1
Ni       7.20000000       5.40000000       9.00000000      58.69340000      154        2
Mn       9.00000000       3.60000000       9.00000000      54.93804400      155        5
Fe       9.00000000       5.40000000       7.20000000      55.84500000      156        4
Cr       7.20000000       3.60000000      10.80000000      51.99610000      157        3
Mn       7.20000000       5.40000000      12.60000000      54.93804400      158        5
Mn       9.00000000       3.60000000      12.60000000      54.93804400      159        5
Fe       9.00000000       5.40000000      10.80000000      55.84500000      160        4
Mn       7.20000000       7.20000000       0.00000000      54.93804400      161        5
Mn       7.20000000       9.00000000       1.80000000      54.93804400      162        5
Cr       9.00000000       7.20000000       1.80000000      51.99610000      163        3
Mn       9.00000000       9.00000000       0.00000000      54.93804400      164        5
Cr       7.20000000       7.20000000       3.60000000      51.99610000      165        3
Cr       7.20000000       9.00000000       5.40000000      51.99610000      166        3
Mn       9.00000000       7.20000000       5.40000000      54.93804400      167        5
Mn       9.00000000       9.00000000       3.60000000      54.93804400      168        5
Co       7.20000000       7.20000000       7.20000000      58.93319400      169        1
Mn       7.20000000       9.00000000       9.00000000      54.93804400      170        5
Mn       9.00000000       7.20000000       9.00000000      54.93804400      171        5
Fe       9.00000000       9.00000000       7.20000000      55.84500000      172        4
Cr       7.20000000       7.20000000      10.80000000      51.99610000      173        3
Mn       7.20000000       9.00000000      12.60000000      54.93804400      174        5
Mn       9.00000000       7.20000000      12.60000000      54.93804400      175        5
Mn       9.00000000       9.00000000      10.80000000      54.93804400      176        5
Cr       7.20000000      10.80000000       0.00000000      51.99610000      177        3
Fe       7.20000000      12.60000000       1.80000000      55.84500000      178        4
Cr       9.00000000      10.80000000       1.80000000      51.99610000      179        3
Mn       9.00000000      12.60000000       0.00000000      54.93804400      180        5
Cr       7.20000000      10.80000000       3.60000000      51.99610000      181        3
Fe       7.20000000      12.60000000       5.40000000      55.84500000      182        4
Fe       9.00000000      10.80000000       5.40000000      55.84500000      183        4
Ni       9.00000000      12.60000000       3.60000000      58.69340000      184        2
Cr       7.20000000      10.80000000       7.20000000      51.99610000      185        3
Mn       7.20000000      12.60000000       9.00000000      54.93804400      186        5
Mn       9.00000000      10.80000000       9.00000000      54.93804400      187        5
Ni       9.00000000      12.60000000       7.20000000      58.69340000      188        2
Cr       7.20000000      10.80000000      10.80000000      51.99610000      189        3
Mn       7.20000000      12.60000000      12.60000000      54.93804400      190        5
Cr       9.00000000      10.80000000      12.60000000      51.99610000      191        3
Mn       9.00000000      12.60000000      10.80000000      54.93804400      192        5
Mn      10.80000000       0.00000000       0.00000000      54.93804400      193        5
Mn      10.80000000       1.80000000       1.80000000      54.93804400      194        5
Cr      12.60000000       0.00000000       1.80000000      51.99610000      195        3
Mn      12.60000000       1.80000000       0.00000000      54.93804400      196        5
Ni      10.80000000       0.00000000       3.60000000      58.69340000      197        2
Ni      10.80000000       1.80000000       5.40000000      58.69340000      198        2
Co      12.60000000       0.00000000       5.40000000      58.93319400      199        1
Co      12.60000000       1.80000000       3.60000000      58.93319400      200        1
Fe      10.80000000       0.00000000       7.20000000      55.84500000      201        4
Mn      10.80000000       1.80000000       9.00000000      54.93804400      202        5
Co      12.60000000       0.00000000       9.00000000      58.93319400      203        1
Co      12.60000000       1.80000000       7.20000000      58.93319400      204        1
Mn      10.80000000       0.00000000      10.80000000      54.93804400      205        5
Cr      10.80000000       1.80000000      12.60000000      51.99610000      206        3
Mn      12.60000000       0.00000000      12.60000000      54.93804400      207        5
Fe      12.60000000       1.80000000      10.80000000      55.84500000      208        4
Mn      10.80000000       3.60000000       0.00000000      54.93804400      209        5
Mn      10.80000000       5.40000000       1.80000000      54.93804400      210        5
Cr      12.60000000       3.60000000       1.80000000      51.99610000      211        3
Mn      12.60000000       5.40000000       0.00000000      54.93804400      212        5
Co      10.80000000       3.60000000       3.60000000      58.93319400      213        1
Co      10.80000000       5.40000000       5.40000000      58.93319400      214        1
Co      12.60000000       3.60000000       5.40000000      58.93319400      215        1
Fe      12.60000000       5.40000000       3.60000000      55.84500000      216        4
Co      10.80000000       3.60000000       7.20000000      58.93319400      217        1
Cr      10.80000000       5.40000000       9.00000000      51.99610000      218        3
Ni      12.60000000       3.60000000       9.00000000      58.69340000      219        2
Fe      12.60000000       5.40000000       7.20000000      55.84500000      220        4
Cr      10.80000000       3.60000000      10.80000000      51.99610000      221        3
Fe      10.80000000       5.40000000      12.60000000      55.84500000      222        4
Cr      12.60000000       3.60000000      12.60000000      51.99610000      223        3
Ni      12.60000000       5.40000000      10.80000000      58.69340000      224        2
Mn      10.80000000       7.20000000       0.00000000      54.93804400      225        5
Mn      10.80000000       9.00000000       1.80000000      54.93804400      226        5
Cr      12.60000000       7.20000000       1.80000000      51.99610000      227        3
Fe      12.60000000       9.00000000       0.00000000      55.84500000      228        4
Fe      10.80000000       7.20000000       3.60000000      55.84500000      229        4
Ni      10.80000000       9.00000000       5.40000000      58.69340000      230        2
Cr      12.60000000       7.20000000       5.40000000      51.99610000      231        3
Mn      12.60000000       9.00000000       3.60000000      54.93804400      232        5
Ni      10.80000000       7.20000000       7.20000000      58.69340000      233        2
Cr      10.80000000       9.00000000       9.00000000      51.99610000      234        3
Ni      12.60000000       7.20000000       9.00000000      58.69340000      235        2
Fe      12.60000000       9.00000000       7.20000000      55.84500000      236        4
Co      10.80000000       7.20000000      10.80000000      58.93319400      237        1
Cr      10.80000000       9.00000000      12.60000000      51.99610000      238        3
Co      12.60000000       7.20000000      12.60000000      58.93319400      239        1
Fe      12.60000000       9.00000000      10.80000000      55.84500000      240        4
Mn      10.80000000      10.80000000       0.00000000      54.93804400      241        5
Mn      10.80000000      12.60000000       1.80000000      54.93804400      242        5
Cr      12.60000000      10.80000000       1.80000000      51.99610000      243        3
Cr      12.60000000      12.60000000       0.00000000      51.99610000      244        3
Mn      10.80000000      10.80000000       3.60000000      54.93804400      245        5
Co      10.80000000      12.60000000       5.40000000      58.93319400      246        1
Cr      12.60000000      10.80000000       5.40000000      51.99610000      247        3
Fe      12.60000000      12.60000000       3.60000000      55.84500000      248        4
Cr      10.80000000      10.80000000       7.20000000      51.99610000      249        3
Fe      10.80000000      12.60000000       9.00000000      55.84500000      250        4
Ni      12.60000000      10.80000000       9.00000000      58.69340000      251        2
Ni      12.60000000      12.60000000       7.20000000      58.69340000      252        2
Mn      10.80000000      10.80000000      10.80000000      54.93804400      253        5
Mn      10.80000000      12.60000000      12.60000000      54.93804400      254        5
Cr      12.60000000      10.80000000      12.60000000      51.99610000      255        3
Cr      12.60000000      12.60000000      10.80000000      51.99610000      256        3
