256
Lattice="14.4 0.0 0.0 0.0 14.4 0.0 0.0 0.0 14.4" Properties=species:S:1:pos:R:3:masses:R:1:id:I:1:type:I:1 comment="(written by ASE)" energy=-1022.93647260551 pbc="T T T"
Fe       0.00000000       0.00000000       0.00000000      55.84500000        1        4
Cr       0.00000000       1.80000000       1.80000000      51.99610000        2        3
Fe       1.80000000       0.00000000       1.80000000      55.84500000        3        4
Fe       1.80000000       1.80000000       0.00000000      55.84500000        4        4
Co       0.00000000       0.00000000       3.60000000      58.93319400        5        1
Ni       0.00000000       1.80000000       5.40000000      58.69340000        6        2
Cr       1.80000000       0.00000000       5.40000000      51.99610000        7        3
Mn       1.80000000       1.80000000       3.60000000      54.93804400        8        5
Co       0.00000000       0.00000000       7.20000000      58.93319400        9        1
Cr       0.00000000       1.80000000       9.00000000      51.99610000       10        3
Co       1.80000000       0.00000000       9.00000000      58.93319400       11        1
Mn       1.80000000       1.80000000       7.20000000      54.93804400       12        5
Ni       0.00000000       0.00000000      10.80000000      58.69340000       13        2
Fe       0.00000000       1.80000000      12.60000000      55.84500000       14        4
Fe       1.80000000       0.00000000      12.60000000      55.84500000       15        4
Fe       1.80000000       1.80000000      10.80000000      55.84500000       16        4
Fe       0.00000000       3.60000000       0.00000000      55.84500000       17        4
Co       0.00000000       5.40000000       1.80000000      58.93319400       18        1
Co       1.80000000       3.60000000       1.80000000      58.93319400       19        1
Mn       1.80000000       5.40000000       0.00000000      54.93804400       20        5
Cr       0.00000000       3.60000000       3.60000000      51.99610000       21        3
Ni       0.00000000       5.40000000       5.40000000      58.69340000       22        2
Ni       1.80000000       3.60000000       5.40000000      58.69340000       23        2
Mn       1.80000000       5.40000000       3.60000000      54.93804400       24        5
Ni       0.00000000       3.60000000       7.20000000      58.69340000       25        2
Ni       0.00000000       5.40000000       9.00000000      58.69340000       26        2
Co       1.80000000       3.60000000       9.00000000      58.93319400       27        1
Mn       1.80000000       5.40000000       7.20000000      54.93804400       28        5
Cr       0.00000000       3.60000000      10.80000000      51.99610000       29        3
Fe       0.00000000       5.40000000      12.60000000      55.84500000       30        4
Cr       1.80000000       3.60000000      12.60000000      51.99610000       31        3
Mn       1.80000000       5.40000000      10.80000000      54.93804400       32        5
Cr       0.00000000       7.20000000       0.00000000      51.99610000       33        3
Mn       0.00000000       9.00000000       1.80000000      54.93804400       34        5
Co       1.80000000       7.20000000       1.80000000      58.93319400       35        1
Mn       1.80000000       9.00000000       0.00000000      54.93804400       36        5
Ni       0.00000000       7.20000000       3.60000000      58.69340000       37        2
Mn       0.00000000       9.00000000       5.40000000      54.93804400       38        5
Co       1.80000000       7.20000000       5.40000000      58.93319400       39        1
Ni       1.80000000       9.00000000       3.60000000      58.69340000       40        2
Mn       0.00000000       7.20000000       7.20000000      54.93804400       41        5
Mn       0.00000000       9.00000000       9.00000000      54.93804400       42        5
Co       1.80000000       7.20000000       9.00000000      58.93319400       43        1
Cr       1.80000000       9.00000000       7.20000000      51.99610000       44        3
Co       0.00000000       7.20000000      10.80000000      58.93319400       45        1
Cr       0.00000000       9.00000000      12.60000000      51.99610000       46        3
Fe       1.80000000       7.20000000      12.60000000      55.84500000       47        4
Mn       1.80000000       9.00000000      10.80000000      54.93804400       48        5
Ni       0.00000000      10.80000000       0.00000000      58.69340000       49        2
Mn       0.00000000      12.60000000       1.80000000      54.93804400       50        5
Co       1.80000000      10.80000000       1.80000000      58.93319400       51        1
Cr       1.80000000      12.60000000       0.00000000      51.99610000       52        3
Ni       0.00000000      10.80000000       3.60000000      58.69340000       53        2
Ni       0.00000000      12.60000000       5.40000000      58.69340000       54        2
Co       1.80000000      10.80000000       5.40000000      58.93319400       55        1
Cr       1.80000000      12.60000000       3.60000000      51.99610000       56        3
Ni       0.00000000      10.80000000       7.20000000      58.69340000       57        2
Ni       0.00000000      12.60000000       9.00000000      58.69340000       58        2
Co       1.80000000      10.80000000       9.00000000      58.93319400       59        1
Mn       1.80000000      12.60000000       7.20000000      54.93804400       60        5
Co       0.00000000      10.80000000      10.80000000      58.93319400       61        1
Mn       0.00000000      12.60000000      12.60000000      54.93804400       62        5
Ni       1.80000000      10.80000000      12.60000000      58.69340000       63        2
Mn       1.80000000      12.60000000      10.80000000      54.93804400       64        5
Fe       3.60000000       0.00000000       0.00000000      55.84500000       65        4
Cr       3.60000000       1.80000000       1.80000000      51.99610000       66        3
Fe       5.40000000       0.00000000       1.80000000      55.84500000       67        4
Cr       5.40000000       1.80000000       0.00000000      51.99610000       68        3
Fe       3.60000000       0.00000000       3.60000000      55.84500000       69        4
Mn       3.60000000       1.80000000       5.40000000      54.93804400       70        5
Mn       5.40000000       0.00000000       5.40000000      54.93804400       71        5
Mn       5.40000000       1.80000000       3.60000000      54.93804400       72        5
Co       3.60000000       0.00000000       7.20000000      58.93319400       73        1
Mn       3.60000000       1.80000000       9.00000000      54.93804400       74        5
Mn       5.40000000       0.00000000       9.00000000      54.93804400       75        5
Ni       5.40000000       1.80000000       7.20000000      58.69340000       76        2
Cr       3.60000000       0.00000000      10.80000000      51.99610000       77        3
Fe       3.60000000       1.80000000      12.60000000      55.84500000       78        4
Fe       5.40000000       0.00000000      12.60000000      55.84500000       79        4
Fe       5.40000000       1.80000000      10.80000000      55.84500000       80        4
Mn       3.60000000       3.60000000       0.00000000      54.93804400       81        5
Co       3.60000000       5.40000000       1.80000000      58.93319400       82        1
Co       5.40000000       3.60000000       1.80000000      58.93319400       83        1
Fe       5.40000000       5.40000000       0.00000000      55.84500000       84        4
Ni       3.60000000       3.60000000       3.60000000      58.69340000       85        2
Co       3.60000000       5.40000000       5.40000000      58.93319400       86        1
Ni       5.40000000       3.60000000       5.40000000      58.69340000       87        2
Mn       5.40000000       5.40000000       3.60000000      54.93804400       88        5
Ni       3.60000000       3.60000000       7.20000000      58.69340000       89        2
Ni       3.60000000       5.40000000       9.00000000      58.69340000       90        2
Co       5.40000000       3.60000000       9.00000000      58.93319400       91        1
Mn       5.40000000       5.40000000       7.20000000      54.93804400       92        5
Cr       3.60000000       3.60000000      10.80000000      51.99610000       93        3
Co       3.60000000       5.40000000      12.60000000      58.93319400       94        1
Fe       5.40000000       3.60000000      12.60000000      55.84500000       95        4
Mn       5.40000000       5.40000000      10.80000000      54.93804400       96        5
Cr       3.60000000       7.20000000       0.00000000      51.99610000       97        3
Ni       3.60000000       9.00000000       1.80000000      58.69340000       98        2
Fe       5.40000000       7.20000000       1.80000000      55.84500000       99        4
Fe       5.40000000       9.00000000       0.00000000      55.84500000      100        4
Mn       3.60000000       7.20000000       3.60000000      54.93804400      101        5
Co       3.60000000       9.00000000       5.40000000      58.93319400      102        1
Ni       5.40000000       7.20000000       5.40000000      58.69340000      103        2
Cr       5.40000000       9.00000000       3.60000000      51.99610000      104        3
Mn       3.60000000       7.20000000       7.20000000      54.93804400      105        5
Ni       3.60000000       9.00000000       9.00000000      58.69340000      106        2
Co       5.40000000       7.20000000       9.00000000      58.93319400      107        1
Co       5.40000000       9.00000000       7.20000000      58.93319400      108        1
Ni       3.60000000       7.20000000      10.80000000      58.69340000      109        2
Co       3.60000000       9.00000000      12.60000000      58.93319400      110        1
Cr       5.40000000       7.20000000      12.60000000      51.99610000      111        3
Co       5.40000000       9.00000000      10.80000000      58.93319400      112        1
Mn       3.60000000      10.80000000       0.00000000      54.93804400      113        5
Fe       3.60000000      12.60000000       1.80000000      55.84500000      114        4
Cr       5.40000000      10.80000000       1.80000000      51.99610000      115        3
Fe       5.40000000      12.60000000       0.00000000      55.84500000      116        4
Mn       3.60000000      10.80000000       3.60000000      54.93804400      117        5
Ni       3.60000000      12.60000000       5.40000000      58.69340000      118        2
Mn       5.40000000      10.80000000       5.40000000      54.93804400      119        5
Cr       5.40000000      12.60000000       3.60000000      51.99610000      120        3
Ni       3.60000000      10.80000000       7.20000000      58.69340000      121        2
Ni       3.60000000      12.60000000       9.00000000      58.69340000      122        2
Mn       5.40000000      10.80000000       9.00000000      54.93804400      123        5
Ni       5.40000000      12.60000000       7.20000000      58.69340000      124        2
Mn       3.60000000      10.80000000      10.80000000      54.93804400      125        5
Co       3.60000000      12.60000000      12.60000000      58.93319400      126        1
Cr       5.40000000      10.80000000      12.60000000      51.99610000      127        3
Cr       5.40000000      12.60000000      10.80000000      51.99610000      128        3
Cr       7.20000000       0.00000000       0.00000000      51.99610000      129        3
Mn       7.20000000       1.80000000       1.80000000      54.93804400      130        5
Cr       9.00000000       0.00000000       1.80000000      51.99610000      131        3
Co       9.00000000       1.80000000       0.00000000      58.93319400      132        1
Ni       7.20000000       0.00000000       3.60000000      58.69340000      133        2
Co       7.20000000       1.80000000       5.40000000      58.93319400      134        1
Mn       9.00000000       0.00000000       5.40000000      54.93804400      135        5
Cr       9.00000000       1.80000000       3.60000000      51.99610000      136        3
Mn       7.20000000       0.00000000       7.20000000      54.93804400      137        5
Cr       7.20000000       1.80000000       9.00000000      51.99610000      138        3
Mn       9.00000000       0.00000000       9.00000000      54.93804400      139        5
Ni       9.00000000       1.80000000       7.20000000      58.69340000      140        2
Fe       7.20000000       0.00000000      10.80000000      55.84500000      141        4
Fe       7.20000000       1.80000000      12.60000000      55.84500000      142        4
Fe       9.00000000       0.00000000      12.60000000      55.84500000      143        4
Fe       9.00000000       1.80000000      10.80000000      55.84500000      144        4
Fe       7.20000000       3.60000000       0.00000000      55.84500000      145        4
Fe       7.20000000       5.40000000       1.80000000      55.84500000      146        4
Fe       9.00000000       3.60000000       1.80000000      55.84500000      147        4
Fe       9.00000000       5.40000000       0.00000000      55.84500000      148        4
Cr       7.20000000       3.60000000       3.60000000      51.99610000      149        3
Co       7.20000000       5.40000000       5.40000000      58.93319400      150        1
Mn       9.00000000       3.60000000       5.40000000      54.93804400      151        5
Fe       9.00000000       5.40000000       3.60000000      55.84500000      152        4
Mn       7.20000000       3.60000000       7.20000000      54.93804400      153        5
Co       7.20000000       5.40000000       9.00000000      58.93319400      154        1
Fe       9.00000000       3.60000000       9.00000000      55.84500000      155        4
Ni       9.00000000       5.40000000       7.20000000      58.69340000      156        2
Fe       7.20000000       3.60000000      10.80000000      55.84500000      157        4
Fe       7.20000000       5.40000000      12.60000000      55.84500000      158        4
Fe       9.00000000       3.60000000      12.60000000      55.84500000      159        4
Fe       9.00000000       5.40000000      10.80000000      55.84500000      160        4
Cr       7.20000000       7.20000000       0.00000000      51.99610000      161        3
Fe       7.20000000       9.00000000       1.80000000      55.84500000      162        4
Fe       9.00000000       7.20000000       1.80000000      55.84500000      163        4
Cr       9.00000000       9.00000000       0.00000000      51.99610000      164        3
Fe       7.20000000       7.20000000       3.60000000      55.84500000      165        4
Cr       7.20000000       9.00000000       5.40000000      51.99610000      166        3
Co       9.00000000       7.20000000       5.40000000      58.93319400      167        1
Fe       9.00000000       9.00000000       3.60000000      55.84500000      168        4
Mn       7.20000000       7.20000000       7.20000000      54.93804400      169        5
Ni       7.20000000       9.00000000       9.00000000      58.69340000      170        2
Mn       9.00000000       7.20000000       9.00000000      54.93804400      171        5
Co       9.00000000       9.00000000       7.20000000      58.93319400      172        1
Mn       7.20000000       7.20000000      10.80000000      54.93804400      173        5
Mn       7.20000000       9.00000000      12.60000000      54.93804400      174        5
Co       9.00000000       7.20000000      12.60000000      58.93319400      175        1
Ni       9.00000000       9.00000000      10.80000000      58.69340000      176        2
Fe       7.20000000      10.80000000       0.00000000      55.84500000      177        4
Co       7.20000000      12.60000000       1.80000000      58.93319400      178        1
Cr       9.00000000      10.80000000       1.80000000      51.99610000      179        3
Mn       9.00000000      12.60000000       0.00000000      54.93804400      180        5
Fe       7.20000000      10.80000000       3.60000000      55.84500000      181        4
Ni       7.20000000      12.60000000       5.40000000      58.69340000      182        2
Cr       9.00000000      10.80000000       5.40000000      51.99610000      183        3
Mn       9.00000000      12.60000000       3.60000000      54.93804400      184        5
Mn       7.20000000      10.80000000       7.20000000      54.93804400      185        5
Co       7.20000000      12.60000000       9.00000000      58.93319400      186        1
Ni       9.00000000      10.80000000       9.00000000      58.69340000      187        2
Ni       9.00000000      12.60000000       7.20000000      58.69340000      188        2
Ni       7.20000000      10.80000000      10.80000000      58.69340000      189        2
Cr       7.20000000      12.60000000      12.60000000      51.99610000      190        3
Co       9.00000000      10.80000000      12.60000000      58.93319400      191        1
Mn       9.00000000      12.60000000      10.80000000      54.93804400      192        5
Mn      10.80000000       0.00000000       0.00000000      54.93804400      193        5
Fe      10.80000000       1.80000000       1.80000000      55.84500000      194        4
Cr      12.60000000       0.00000000       1.80000000      51.99610000      195        3
Fe      12.60000000       1.80000000       0.00000000      55.84500000      196        4
Co      10.80000000       0.00000000       3.60000000      58.93319400      197        1
Ni      10.80000000       1.80000000       5.40000000      58.69340000      198        2
Mn      12.60000000       0.00000000       5.40000000      54.93804400      199        5
Mn      12.60000000       1.80000000       3.60000000      54.93804400      200        5
Co      10.80000000       0.00000000       7.20000000      58.93319400      201        1
Cr      10.80000000       1.80000000       9.00000000      51.99610000      202        3
Ni      12.60000000       0.00000000       9.00000000      58.69340000      203        2
Mn      12.60000000       1.80000000       7.20000000      54.93804400      204        5
Co      10.80000000       0.00000000      10.80000000      58.93319400      205        1
Cr      10.80000000       1.80000000      12.60000000      51.99610000      206        3
Cr      12.60000000       0.00000000      12.60000000      51.99610000      207        3
Mn      12.60000000       1.80000000      10.80000000      54.93804400      208        5
Fe      10.80000000       3.60000000       0.00000000      55.84500000      209        4
Fe      10.80000000       5.40000000       1.80000000      55.84500000      210        4
Fe      12.60000000       3.60000000       1.80000000      55.84500000      211        4
Fe      12.60000000       5.40000000       0.00000000      55.84500000      212        4
Cr      10.80000000       3.60000000       3.60000000      51.99610000      213        3
Fe      10.80000000       5.40000000       5.40000000      55.84500000      214        4
Co      12.60000000       3.60000000       5.40000000      58.93319400      215        1
Fe      12.60000000       5.40000000       3.60000000      55.84500000      216        4
Cr      10.80000000       3.60000000       7.20000000      51.99610000      217        3
Cr      10.80000000       5.40000000       9.00000000      51.99610000      218        3
Co      12.60000000       3.60000000       9.00000000      58.93319400      219        1
Cr      12.60000000       5.40000000       7.20000000      51.99610000      220        3
Fe      10.80000000       3.60000000      10.80000000      55.84500000      221        4
Fe      10.80000000       5.40000000      12.60000000      55.84500000      222        4
Cr      12.60000000       3.60000000      12.60000000      51.99610000      223        3
Mn      12.60000000       5.40000000      10.80000000      54.93804400      224        5
Cr      10.80000000       7.20000000       0.00000000      51.99610000      225        3
Fe      10.80000000       9.00000000       1.80000000      55.84500000      226        4
Mn      12.60000000       7.20000000       1.80000000      54.93804400      227        5
Co      12.60000000       9.00000000       0.00000000      58.93319400      228        1
Cr      10.80000000       7.20000000       3.60000000      51.99610000      229        3
Mn      10.80000000       9.00000000       5.40000000      54.93804400      230        5
Co      12.60000000       7.20000000       5.40000000      58.93319400      231        1
Ni      12.60000000       9.00000000       3.60000000      58.69340000      232        2
Mn      10.80000000       7.20000000       7.20000000      54.93804400      233        5
Mn      10.80000000       9.00000000       9.00000000      54.93804400      234        5
Ni      12.60000000       7.20000000       9.00000000      58.69340000      235        2
Ni      12.60000000       9.00000000       7.20000000      58.69340000      236        2
Co      10.80000000       7.20000000      10.80000000      58.93319400      237        1
Mn      10.80000000       9.00000000      12.60000000      54.93804400      238        5
Fe      12.60000000       7.20000000      12.60000000      55.84500000      239        4
Cr      12.60000000       9.00000000      10.80000000      51.99610000      240        3
Co      10.80000000      10.80000000       0.00000000      58.93319400      241        1
Mn      10.80000000      12.60000000       1.80000000      54.93804400      242        5
Cr      12.60000000      10.80000000       1.80000000      51.99610000      243        3
Co      12.60000000      12.60000000       0.00000000      58.93319400      244        1
Co      10.80000000      10.80000000       3.60000000      58.93319400      245        1
Ni      10.80000000      12.60000000       5.40000000      58.69340000      246        2
Mn      12.60000000      10.80000000       5.40000000      54.93804400      247        5
Ni      12.60000000      12.60000000       3.60000000      58.69340000      248        2
Co      10.80000000      10.80000000       7.20000000      58.93319400      249        1
Mn      10.80000000      12.60000000       9.00000000      54.93804400      250        5
Co      12.60000000      10.80000000       9.00000000      58.93319400      251        1
Mn      12.60000000      12.60000000       7.20000000      54.93804400      252        5
Ni      10.80000000      10.80000000      10.80000000      58.69340000      253        2
Cr      10.80000000      12.60000000      12.60000000      51.99610000      254        3
Ni      12.60000000      10.80000000      12.60000000      58.69340000      255        2
Ni      12.60000000      12.60000000      10.80000000      58.69340000      256        2
