256
Lattice="14.4 0.0 0.0 0.0 14.4 0.0 0.0 0.0 14.4" Properties=species:S:1:pos:R:3:masses:R:1:id:I:1:type:I:1 comment="(written by ASE)" energy=-1017.6836001727 pbc="T T T"
Fe       0.00000000       0.00000000       0.00000000      55.84500000        1        4
Fe       0.00000000       1.80000000       1.80000000      55.84500000        2        4
Cr       1.80000000       0.00000000       1.80000000      51.99610000        3        3
Cr       1.80000000       1.80000000       0.00000000      51.99610000        4        3
Fe       0.00000000       0.00000000       3.60000000      55.84500000        5        4
Co       0.00000000       1.80000000       5.40000000      58.93319400        6        1
Ni       1.80000000       0.00000000       5.40000000      58.69340000        7        2
Fe       1.80000000       1.80000000       3.60000000      55.84500000        8        4
Mn       0.00000000       0.00000000       7.20000000      54.93804400        9        5
Ni       0.00000000       1.80000000       9.00000000      58.69340000       10        2
Ni       1.80000000       0.00000000       9.00000000      58.69340000       11        2
Fe       1.80000000       1.80000000       7.20000000      55.84500000       12        4
Mn       0.00000000       0.00000000      10.80000000      54.93804400       13        5
Co       0.00000000       1.80000000      12.60000000      58.93319400       14        1
Cr       1.80000000       0.00000000      12.60000000      51.99610000       15        3
Fe       1.80000000       1.80000000      10.80000000      55.84500000       16        4
Cr       0.00000000       3.60000000       0.00000000      51.99610000       17        3
Co       0.00000000       5.40000000       1.80000000      58.93319400       18        1
Fe       1.80000000       3.60000000       1.80000000      55.84500000       19        4
Cr       1.80000000       5.40000000       0.00000000      51.99610000       20        3
Cr       0.00000000       3.60000000       3.60000000      51.99610000       21        3
Fe       0.00000000       5.40000000       5.40000000      55.84500000       22        4
Fe       1.80000000       3.60000000       5.40000000      55.84500000       23        4
Cr       1.80000000       5.40000000       3.60000000      51.99610000       24        3
Cr       0.00000000       3.60000000       7.20000000      51.99610000       25        3
Fe       0.00000000       5.40000000       9.00000000      55.84500000       26        4
Fe       1.80000000       3.60000000       9.00000000      55.84500000       27        4
Cr       1.80000000       5.40000000       7.20000000      51.99610000       28        3
Cr       0.00000000       3.60000000      10.80000000      51.99610000       29        3
Fe       0.00000000       5.40000000      12.60000000      55.84500000       30        4
Co       1.80000000       3.60000000      12.60000000      58.93319400       31        1
Cr       1.80000000       5.40000000      10.80000000      51.99610000       32        3
Fe       0.00000000       7.20000000       0.00000000      55.84500000       33        4
Co       0.00000000       9.00000000       1.80000000      58.93319400       34        1
Fe       1.80000000       7.20000000       1.80000000      55.84500000       35        4
Cr       1.80000000       9.00000000       0.00000000      51.99610000       36        3
Cr       0.00000000       7.20000000       3.60000000      51.99610000       37        3
Fe       0.00000000       9.00000000       5.40000000      55.84500000       38        4
Fe       1.80000000       7.20000000       5.40000000      55.84500000       39        4
Cr       1.80000000       9.00000000       3.60000000      51.99610000       40        3
Cr       0.00000000       7.20000000       7.20000000      51.99610000       41        3
Co       0.00000000       9.00000000       9.00000000      58.93319400       42        1
Fe       1.80000000       7.20000000       9.00000000      55.84500000       43        4
Co       1.80000000       9.00000000       7.20000000      58.93319400       44        1
Cr       0.00000000       7.20000000      10.80000000      51.99610000       45        3
Co       0.00000000       9.00000000      12.60000000      58.93319400       46        1
Fe       1.80000000       7.20000000      12.60000000      55.84500000       47        4
Co       1.80000000       9.00000000      10.80000000      58.93319400       48        1
Ni       0.00000000      10.80000000       0.00000000      58.69340000       49        2
Fe       0.00000000      12.60000000       1.80000000      55.84500000       50        4
Fe       1.80000000      10.80000000       1.80000000      55.84500000       51        4
Co       1.80000000      12.60000000       0.00000000      58.93319400       52        1
Fe       0.00000000      10.80000000       3.60000000      55.84500000       53        4
Ni       0.00000000      12.60000000       5.40000000      58.69340000       54        2
Co       1.80000000      10.80000000       5.40000000      58.93319400       55        1
Fe       1.80000000      12.60000000       3.60000000      55.84500000       56        4
Ni       0.00000000      10.80000000       7.20000000      58.69340000       57        2
Ni       0.00000000      12.60000000       9.00000000      58.69340000       58        2
Cr       1.80000000      10.80000000       9.00000000      51.99610000       59        3
Ni       1.80000000      12.60000000       7.20000000      58.69340000       60        2
Fe       0.00000000      10.80000000      10.80000000      55.84500000       61        4
Ni       0.00000000      12.60000000      12.60000000      58.69340000       62        2
Fe       1.80000000      10.80000000      12.60000000      55.84500000       63        4
Ni       1.80000000      12.60000000      10.80000000      58.69340000       64        2
Fe       3.60000000       0.00000000       0.00000000      55.84500000       65        4
Co       3.60000000       1.80000000       1.80000000      58.93319400       66        1
Ni       5.40000000       0.00000000       1.80000000      58.69340000       67        2
Ni       5.40000000       1.80000000       0.00000000      58.69340000       68        2
Co       3.60000000       0.00000000       3.60000000      58.93319400       69        1
Cr       3.60000000       1.80000000       5.40000000      51.99610000       70        3
Mn       5.40000000       0.00000000       5.40000000      54.93804400       71        5
Mn       5.40000000       1.80000000       3.60000000      54.93804400       72        5
Co       3.60000000       0.00000000       7.20000000      58.93319400       73        1
Cr       3.60000000       1.80000000       9.00000000      51.99610000       74        3
Fe       5.40000000       0.00000000       9.00000000      55.84500000       75        4
Co       5.40000000       1.80000000       7.20000000      58.93319400       76        1
Co       3.60000000       0.00000000      10.80000000      58.93319400       77        1
Ni       3.60000000       1.80000000      12.60000000      58.69340000       78        2
Co       5.40000000       0.00000000      12.60000000      58.93319400       79        1
Ni       5.40000000       1.80000000      10.80000000      58.69340000       80        2
Fe       3.60000000       3.60000000       0.00000000      55.84500000       81        4
Co       3.60000000       5.40000000       1.80000000      58.93319400       82        1
Ni       5.40000000       3.60000000       1.80000000      58.69340000       83        2
Mn       5.40000000       5.40000000       0.00000000      54.93804400       84        5
Fe       3.60000000       3.60000000       3.60000000      55.84500000       85        4
Cr       3.60000000       5.40000000       5.40000000      51.99610000       86        3
Cr       5.40000000       3.60000000       5.40000000      51.99610000       87        3
Fe       5.40000000       5.40000000       3.60000000      55.84500000       88        4
Fe       3.60000000       3.60000000       7.20000000      55.84500000       89        4
Cr       3.60000000       5.40000000       9.00000000      51.99610000       90        3
Cr       5.40000000       3.60000000       9.00000000      51.99610000       91        3
Co       5.40000000       5.40000000       7.20000000      58.93319400       92        1
Fe       3.60000000       3.60000000      10.80000000      55.84500000       93        4
Co       3.60000000       5.40000000      12.60000000      58.93319400       94        1
Ni       5.40000000       3.60000000      12.60000000      58.69340000       95        2
Ni       5.40000000       5.40000000      10.80000000      58.69340000       96        2
Co       3.60000000       7.20000000       0.00000000      58.93319400       97        1
Ni       3.60000000       9.00000000       1.80000000      58.69340000       98        2
Ni       5.40000000       7.20000000       1.80000000      58.69340000       99        2
Mn       5.40000000       9.00000000       0.00000000      54.93804400      100        5
Co       3.60000000       7.20000000       3.60000000      58.93319400      101        1
Cr       3.60000000       9.00000000       5.40000000      51.99610000      102        3
Fe       5.40000000       7.20000000       5.40000000      55.84500000      103        4
Fe       5.40000000       9.00000000       3.60000000      55.84500000      104        4
Fe       3.60000000       7.20000000       7.20000000      55.84500000      105        4
Cr       3.60000000       9.00000000       9.00000000      51.99610000      106        3
Co       5.40000000       7.20000000       9.00000000      58.93319400      107        1
Fe       5.40000000       9.00000000       7.20000000      55.84500000      108        4
Fe       3.60000000       7.20000000      10.80000000      55.84500000      109        4
Cr       3.60000000       9.00000000      12.60000000      51.99610000      110        3
Mn       5.40000000       7.20000000      12.60000000      54.93804400      111        5
Ni       5.40000000       9.00000000      10.80000000      58.69340000      112        2
Co       3.60000000      10.80000000       0.00000000      58.93319400      113        1
Cr       3.60000000      12.60000000       1.80000000      51.99610000      114        3
Ni       5.40000000      10.80000000       1.80000000      58.69340000      115        2
Cr       5.40000000      12.60000000       0.00000000      51.99610000      116        3
Co       3.60000000      10.80000000       3.60000000      58.93319400      117        1
Ni       3.60000000      12.60000000       5.40000000      58.69340000      118        2
Co       5.40000000      10.80000000       5.40000000      58.93319400      119        1
Mn       5.40000000      12.60000000       3.60000000      54.93804400      120        5
Ni       3.60000000      10.80000000       7.20000000      58.69340000      121        2
Ni       3.60000000      12.60000000       9.00000000      58.69340000      122        2
Ni       5.40000000      10.80000000       9.00000000      58.69340000      123        2
Mn       5.40000000      12.60000000       7.20000000      54.93804400      124        5
Fe       3.60000000      10.80000000      10.80000000      55.84500000      125        4
Fe       3.60000000      12.60000000      12.60000000      55.84500000      126        4
Ni       5.40000000      10.80000000      12.60000000      58.69340000      127        2
Cr       5.40000000      12.60000000      10.80000000      51.99610000      128        3
Ni       7.20000000       0.00000000       0.00000000      58.69340000      129        2
Mn       7.20000000       1.80000000       1.80000000      54.93804400      130        5
Mn       9.00000000       0.00000000       1.80000000      54.93804400      131        5
Mn       9.00000000       1.80000000       0.00000000      54.93804400      132        5
Mn       7.20000000       0.00000000       3.60000000      54.93804400      133        5
Mn       7.20000000       1.80000000       5.40000000      54.93804400      134        5
Mn       9.00000000       0.00000000       5.40000000      54.93804400      135        5
Mn       9.00000000       1.80000000       3.60000000      54.93804400      136        5
Mn       7.20000000       0.00000000       7.20000000      54.93804400      137        5
Mn       7.20000000       1.80000000       9.00000000      54.93804400      138        5
Mn       9.00000000       0.00000000       9.00000000      54.93804400      139        5
Mn       9.00000000       1.80000000       7.20000000      54.93804400      140        5
Ni       7.20000000       0.00000000      10.80000000      58.69340000      141        2
Co       7.20000000       1.80000000      12.60000000      58.93319400      142        1
Mn       9.00000000       0.00000000      12.60000000      54.93804400      143        5
Mn       9.00000000       1.80000000      10.80000000      54.93804400      144        5
Ni       7.20000000       3.60000000       0.00000000      58.69340000      145        2
Ni       7.20000000       5.40000000       1.80000000      58.69340000      146        2
Mn       9.00000000       3.60000000       1.80000000      54.93804400      147        5
Mn       9.00000000       5.40000000       0.00000000      54.93804400      148        5
Mn       7.20000000       3.60000000       3.60000000      54.93804400      149        5
Fe       7.20000000       5.40000000       5.40000000      55.84500000      150        4
Ni       9.00000000       3.60000000       5.40000000      58.69340000      151        2
Co       9.00000000       5.40000000       3.60000000      58.93319400      152        1
Ni       7.20000000       3.60000000       7.20000000      58.69340000      153        2
Co       7.20000000       5.40000000       9.00000000      58.93319400      154        1
Mn       9.00000000       3.60000000       9.00000000      54.93804400      155        5
Ni       9.00000000       5.40000000       7.20000000      58.69340000      156        2
Ni       7.20000000       3.60000000      10.80000000      58.69340000      157        2
Mn       7.20000000       5.40000000      12.60000000      54.93804400      158        5
Mn       9.00000000       3.60000000      12.60000000      54.93804400      159        5
Mn       9.00000000       5.40000000      10.80000000      54.93804400      160        5
Mn       7.20000000       7.20000000       0.00000000      54.93804400      161        5
Co       7.20000000       9.00000000       1.80000000      58.93319400      162        1
Co       9.00000000       7.20000000       1.80000000      58.93319400      163        1
Mn       9.00000000       9.00000000       0.00000000      54.93804400      164        5
Cr       7.20000000       7.20000000       3.60000000      51.99610000      165        3
Cr       7.20000000       9.00000000       5.40000000      51.99610000      166        3
Fe       9.00000000       7.20000000       5.40000000      55.84500000      167        4
Fe       9.00000000       9.00000000       3.60000000      55.84500000      168        4
Cr       7.20000000       7.20000000       7.20000000      51.99610000      169        3
Co       7.20000000       9.00000000       9.00000000      58.93319400      170        1
Ni       9.00000000       7.20000000       9.00000000      58.69340000      171        2
Fe       9.00000000       9.00000000       7.20000000      55.84500000      172        4
Mn       7.20000000       7.20000000      10.80000000      54.93804400      173        5
Mn       7.20000000       9.00000000      12.60000000      54.93804400      174        5
Mn       9.00000000       7.20000000      12.60000000      54.93804400      175        5
Co       9.00000000       9.00000000      10.80000000      58.93319400      176        1
Fe       7.20000000      10.80000000       0.00000000      55.84500000      177        4
Co       7.20000000      12.60000000       1.80000000      58.93319400      178        1
Cr       9.00000000      10.80000000       1.80000000      51.99610000      179        3
Mn       9.00000000      12.60000000       0.00000000      54.93804400      180        5
Mn       7.20000000      10.80000000       3.60000000      54.93804400      181        5
Mn       7.20000000      12.60000000       5.40000000      54.93804400      182        5
Co       9.00000000      10.80000000       5.40000000      58.93319400      183        1
Mn       9.00000000      12.60000000       3.60000000      54.93804400      184        5
Co       7.20000000      10.80000000       7.20000000      58.93319400      185        1
Co       7.20000000      12.60000000       9.00000000      58.93319400      186        1
Cr       9.00000000      10.80000000       9.00000000      51.99610000      187        3
Mn       9.00000000      12.60000000       7.20000000      54.93804400      188        5
Ni       7.20000000      10.80000000      10.80000000      58.69340000      189        2
Co       7.20000000      12.60000000      12.60000000      58.93319400      190        1
Mn       9.00000000      10.80000000      12.60000000      54.93804400      191        5
Mn       9.00000000      12.60000000      10.80000000      54.93804400      192        5
Mn      10.80000000       0.00000000       0.00000000      54.93804400      193        5
Ni      10.80000000       1.80000000       1.80000000      58.69340000      194        2
Cr      12.60000000       0.00000000       1.80000000      51.99610000      195        3
Ni      12.60000000       1.80000000       0.00000000      58.69340000      196        2
Co      10.80000000       0.00000000       3.60000000      58.93319400      197        1
Mn      10.80000000       1.80000000       5.40000000      54.93804400      198        5
Mn      12.60000000       0.00000000       5.40000000      54.93804400      199        5
Ni      12.60000000       1.80000000       3.60000000      58.69340000      200        2
Mn      10.80000000       0.00000000       7.20000000      54.93804400      201        5
Mn      10.80000000       1.80000000       9.00000000      54.93804400      202        5
Mn      12.60000000       0.00000000       9.00000000      54.93804400      203        5
Mn      12.60000000       1.80000000       7.20000000      54.93804400      204        5
Mn      10.80000000       0.00000000      10.80000000      54.93804400      205        5
Mn      10.80000000       1.80000000      12.60000000      54.93804400      206        5
Mn      12.60000000       0.00000000      12.60000000      54.93804400      207        5
Mn      12.60000000       1.80000000      10.80000000      54.93804400      208        5
Mn      10.80000000       3.60000000       0.00000000      54.93804400      209        5
Co      10.80000000       5.40000000       1.80000000      58.93319400      210        1
Fe      12.60000000       3.60000000       1.80000000      55.84500000      211        4
Cr      12.60000000       5.40000000       0.00000000      51.99610000      212        3
Ni      10.80000000       3.60000000       3.60000000      58.69340000      213        2
Fe      10.80000000       5.40000000       5.40000000      55.84500000      214        4
Co      12.60000000       3.60000000       5.40000000      58.93319400      215        1
Cr      12.60000000       5.40000000       3.60000000      51.99610000      216        3
Mn      10.80000000       3.60000000       7.20000000      54.93804400      217        5
Fe      10.80000000       5.40000000       9.00000000      55.84500000      218        4
Co      12.60000000       3.60000000       9.00000000      58.93319400      219        1
Cr      12.60000000       5.40000000       7.20000000      51.99610000      220        3
Ni      10.80000000       3.60000000      10.80000000      58.69340000      221        2
Co      10.80000000       5.40000000      12.60000000      58.93319400      222        1
Co      12.60000000       3.60000000      12.60000000      58.93319400      223        1
Cr      12.60000000       5.40000000      10.80000000      51.99610000      224        3
Mn      10.80000000       7.20000000       0.00000000      54.93804400      225        5
Co      10.80000000       9.00000000       1.80000000      58.93319400      226        1
Fe      12.60000000       7.20000000       1.80000000      55.84500000      227        4
Ni      12.60000000       9.00000000       0.00000000      58.69340000      228        2
Cr      10.80000000       7.20000000       3.60000000      51.99610000      229        3
Cr      10.80000000       9.00000000       5.40000000      51.99610000      230        3
Fe      12.60000000       7.20000000       5.40000000      55.84500000      231        4
Cr      12.60000000       9.00000000       3.60000000      51.99610000      232        3
Cr      10.80000000       7.20000000       7.20000000      51.99610000      233        3
Co      10.80000000       9.00000000       9.00000000      58.93319400      234        1
Fe      12.60000000       7.20000000       9.00000000      55.84500000      235        4
Fe      12.60000000       9.00000000       7.20000000      55.84500000      236        4
Cr      10.80000000       7.20000000      10.80000000      51.99610000      237        3
Co      10.80000000       9.00000000      12.60000000      58.93319400      238        1
Fe      12.60000000       7.20000000      12.60000000      55.84500000      239        4
Cr      12.60000000       9.00000000      10.80000000      51.99610000      240        3
Ni      10.80000000      10.80000000       0.00000000      58.69340000      241        2
Fe      10.80000000      12.60000000       1.80000000      55.84500000      242        4
Cr      12.60000000      10.80000000       1.80000000      51.99610000      243        3
Co      12.60000000      12.60000000       0.00000000      58.93319400      244        1
Fe      10.80000000      10.80000000       3.60000000      55.84500000      245        4
Mn      10.80000000      12.60000000       5.40000000      54.93804400      246        5
Co      12.60000000      10.80000000       5.40000000      58.93319400      247        1
Cr      12.60000000      12.60000000       3.60000000      51.99610000      248        3
Ni      10.80000000      10.80000000       7.20000000      58.69340000      249        2
Mn      10.80000000      12.60000000       9.00000000      54.93804400      250        5
Ni      12.60000000      10.80000000       9.00000000      58.69340000      251        2
Mn      12.60000000      12.60000000       7.20000000      54.93804400      252        5
Mn      10.80000000      10.80000000      10.80000000      54.93804400      253        5
Mn      10.80000000      12.60000000      12.60000000      54.93804400      254        5
Ni      12.60000000      10.80000000      12.60000000      58.69340000      255        2
Mn      12.60000000      12.60000000      10.80000000      54.93804400      256        5
