256
Lattice="14.4 0.0 0.0 0.0 14.4 0.0 0.0 0.0 14.4" Properties=species:S:1:pos:R:3:masses:R:1:id:I:1:type:I:1 comment="(written by ASE)" energy=-1019.66689591124 pbc="T T T"
Ni       0.00000000       0.00000000       0.00000000      58.69340000        1        2
Ni       0.00000000       1.80000000       1.80000000      58.69340000        2        2
Cr       1.80000000       0.00000000       1.80000000      51.99610000        3        3
Fe       1.80000000       1.80000000       0.00000000      55.84500000        4        4
Ni       0.00000000       0.00000000       3.60000000      58.69340000        5        2
Fe       0.00000000       1.80000000       5.40000000      55.84500000        6        4
Cr       1.80000000       0.00000000       5.40000000      51.99610000        7        3
Fe       1.80000000       1.80000000       3.60000000      55.84500000        8        4
Mn       0.00000000       0.00000000       7.20000000      54.93804400        9        5
Cr       0.00000000       1.80000000       9.00000000      51.99610000       10        3
Mn       1.80000000       0.00000000       9.00000000      54.93804400       11        5
Ni       1.80000000       1.80000000       7.20000000      58.69340000       12        2
Mn       0.00000000       0.00000000      10.80000000      54.93804400       13        5
Ni       0.00000000       1.80000000      12.60000000      58.69340000       14        2
Cr       1.80000000       0.00000000      12.60000000      51.99610000       15        3
Fe       1.80000000       1.80000000      10.80000000      55.84500000       16        4
Ni       0.00000000       3.60000000       0.00000000      58.69340000       17        2
Cr       0.00000000       5.40000000       1.80000000      51.99610000       18        3
Ni       1.80000000       3.60000000       1.80000000      58.69340000       19        2
Fe       1.80000000       5.40000000       0.00000000      55.84500000       20        4
Ni       0.00000000       3.60000000       3.60000000      58.69340000       21        2
Mn       0.00000000       5.40000000       5.40000000      54.93804400       22        5
Cr       1.80000000       3.60000000       5.40000000      51.99610000       23        3
Fe       1.80000000       5.40000000       3.60000000      55.84500000       24        4
Mn       0.00000000       3.60000000       7.20000000      54.93804400       25        5
Fe       0.00000000       5.40000000       9.00000000      55.84500000       26        4
Ni       1.80000000       3.60000000       9.00000000      58.69340000       27        2
Fe       1.80000000       5.40000000       7.20000000      55.84500000       28        4
Mn       0.00000000       3.60000000      10.80000000      54.93804400       29        5
Cr       0.00000000       5.40000000      12.60000000      51.99610000       30        3
Ni       1.80000000       3.60000000      12.60000000      58.69340000       31        2
Ni       1.80000000       5.40000000      10.80000000      58.69340000       32        2
Co       0.00000000       7.20000000       0.00000000      58.93319400       33        1
Mn       0.00000000       9.00000000       1.80000000      54.93804400       34        5
Mn       1.80000000       7.20000000       1.80000000      54.93804400       35        5
Co       1.80000000       9.00000000       0.00000000      58.93319400       36        1
Cr       0.00000000       7.20000000       3.60000000      51.99610000       37        3
Mn       0.00000000       9.00000000       5.40000000      54.93804400       38        5
Fe       1.80000000       7.20000000       5.40000000      55.84500000       39        4
Mn       1.80000000       9.00000000       3.60000000      54.93804400       40        5
Mn       0.00000000       7.20000000       7.20000000      54.93804400       41        5
Mn       0.00000000       9.00000000       9.00000000      54.93804400       42        5
Mn       1.80000000       7.20000000       9.00000000      54.93804400       43        5
Cr       1.80000000       9.00000000       7.20000000      51.99610000       44        3
Co       0.00000000       7.20000000      10.80000000      58.93319400       45        1
Co       0.00000000       9.00000000      12.60000000      58.93319400       46        1
Fe       1.80000000       7.20000000      12.60000000      55.84500000       47        4
Cr       1.80000000       9.00000000      10.80000000      51.99610000       48        3
Cr       0.00000000      10.80000000       0.00000000      51.99610000       49        3
Ni       0.00000000      12.60000000       1.80000000      58.69340000       50        2
Fe       1.80000000      10.80000000       1.80000000      55.84500000       51        4
Mn       1.80000000      12.60000000       0.00000000      54.93804400       52        5
Cr       0.00000000      10.80000000       3.60000000      51.99610000       53        3
Fe       0.00000000      12.60000000       5.40000000      55.84500000       54        4
Mn       1.80000000      10.80000000       5.40000000      54.93804400       55        5
Mn       1.80000000      12.60000000       3.60000000      54.93804400       56        5
Cr       0.00000000      10.80000000       7.20000000      51.99610000       57        3
Fe       0.00000000      12.60000000       9.00000000      55.84500000       58        4
Co       1.80000000      10.80000000       9.00000000      58.93319400       59        1
Mn       1.80000000      12.60000000       7.20000000      54.93804400       60        5
Mn       0.00000000      10.80000000      10.80000000      54.93804400       61        5
Fe       0.00000000      12.60000000      12.60000000      55.84500000       62        4
Mn       1.80000000      10.80000000      12.60000000      54.93804400       63        5
Cr       1.80000000      12.60000000      10.80000000      51.99610000       64        3
Mn       3.60000000       0.00000000       0.00000000      54.93804400       65        5
Mn       3.60000000       1.80000000       1.80000000      54.93804400       66        5
Fe       5.40000000       0.00000000       1.80000000      55.84500000       67        4
Cr       5.40000000       1.80000000       0.00000000      51.99610000       68        3
Mn       3.60000000       0.00000000       3.60000000      54.93804400       69        5
Fe       3.60000000       1.80000000       5.40000000      55.84500000       70        4
Cr       5.40000000       0.00000000       5.40000000      51.99610000       71        3
Mn       5.40000000       1.80000000       3.60000000      54.93804400       72        5
Fe       3.60000000       0.00000000       7.20000000      55.84500000       73        4
Ni       3.60000000       1.80000000       9.00000000      58.69340000       74        2
Mn       5.40000000       0.00000000       9.00000000      54.93804400       75        5
Ni       5.40000000       1.80000000       7.20000000      58.69340000       76        2
Fe       3.60000000       0.00000000      10.80000000      55.84500000       77        4
Cr       3.60000000       1.80000000      12.60000000      51.99610000       78        3
Fe       5.40000000       0.00000000      12.60000000      55.84500000       79        4
Ni       5.40000000       1.80000000      10.80000000      58.69340000       80        2
Mn       3.60000000       3.60000000       0.00000000      54.93804400       81        5
Cr       3.60000000       5.40000000       1.80000000      51.99610000       82        3
Mn       5.40000000       3.60000000       1.80000000      54.93804400       83        5
Cr       5.40000000       5.40000000       0.00000000      51.99610000       84        3
Mn       3.60000000       3.60000000       3.60000000      54.93804400       85        5
Mn       3.60000000       5.40000000       5.40000000      54.93804400       86        5
Fe       5.40000000       3.60000000       5.40000000      55.84500000       87        4
Mn       5.40000000       5.40000000       3.60000000      54.93804400       88        5
Ni       3.60000000       3.60000000       7.20000000      58.69340000       89        2
Ni       3.60000000       5.40000000       9.00000000      58.69340000       90        2
Ni       5.40000000       3.60000000       9.00000000      58.69340000       91        2
Ni       5.40000000       5.40000000       7.20000000      58.69340000       92        2
Ni       3.60000000       3.60000000      10.80000000      58.69340000       93        2
Cr       3.60000000       5.40000000      12.60000000      51.99610000       94        3
Mn       5.40000000       3.60000000      12.60000000      54.93804400       95        5
Cr       5.40000000       5.40000000      10.80000000      51.99610000       96        3
Co       3.60000000       7.20000000       0.00000000      58.93319400       97        1
Co       3.60000000       9.00000000       1.80000000      58.93319400       98        1
Fe       5.40000000       7.20000000       1.80000000      55.84500000       99        4
Co       5.40000000       9.00000000       0.00000000      58.93319400      100        1
Cr       3.60000000       7.20000000       3.60000000      51.99610000      101        3
Mn       3.60000000       9.00000000       5.40000000      54.93804400      102        5
Cr       5.40000000       7.20000000       5.40000000      51.99610000      103        3
Co       5.40000000       9.00000000       3.60000000      58.93319400      104        1
Mn       3.60000000       7.20000000       7.20000000      54.93804400      105        5
Fe       3.60000000       9.00000000       9.00000000      55.84500000      106        4
Fe       5.40000000       7.20000000       9.00000000      55.84500000      107        4
Mn       5.40000000       9.00000000       7.20000000      54.93804400      108        5
Fe       3.60000000       7.20000000      10.80000000      55.84500000      109        4
Co       3.60000000       9.00000000      12.60000000      58.93319400      110        1
Co       5.40000000       7.20000000      12.60000000      58.93319400      111        1
Co       5.40000000       9.00000000      10.80000000      58.93319400      112        1
Co       3.60000000      10.80000000       0.00000000      58.93319400      113        1
Co       3.60000000      12.60000000       1.80000000      58.93319400      114        1
Co       5.40000000      10.80000000       1.80000000      58.93319400      115        1
Co       5.40000000      12.60000000       0.00000000      58.93319400      116        1
Cr       3.60000000      10.80000000       3.60000000      51.99610000      117        3
Fe       3.60000000      12.60000000       5.40000000      55.84500000      118        4
Mn       5.40000000      10.80000000       5.40000000      54.93804400      119        5
Co       5.40000000      12.60000000       3.60000000      58.93319400      120        1
Cr       3.60000000      10.80000000       7.20000000      51.99610000      121        3
Co       3.60000000      12.60000000       9.00000000      58.93319400      122        1
Co       5.40000000      10.80000000       9.00000000      58.93319400      123        1
Co       5.40000000      12.60000000       7.20000000      58.93319400      124        1
Co       3.60000000      10.80000000      10.80000000      58.93319400      125        1
Fe       3.60000000      12.60000000      12.60000000      55.84500000      126        4
Co       5.40000000      10.80000000      12.60000000      58.93319400      127        1
Cr       5.40000000      12.60000000      10.80000000      51.99610000      128        3
Co       7.20000000       0.00000000       0.00000000      58.93319400      129        1
Mn       7.20000000       1.80000000       1.80000000      54.93804400      130        5
Fe       9.00000000       0.00000000       1.80000000      55.84500000      131        4
Co       9.00000000       1.80000000       0.00000000      58.93319400      132        1
Cr       7.20000000       0.00000000       3.60000000      51.99610000      133        3
Ni       7.20000000       1.80000000       5.40000000      58.69340000      134        2
Ni       9.00000000       0.00000000       5.40000000      58.69340000      135        2
Ni       9.00000000       1.80000000       3.60000000      58.69340000      136        2
Fe       7.20000000       0.00000000       7.20000000      55.84500000      137        4
Ni       7.20000000       1.80000000       9.00000000      58.69340000      138        2
Ni       9.00000000       0.00000000       9.00000000      58.69340000      139        2
Ni       9.00000000       1.80000000       7.20000000      58.69340000      140        2
Fe       7.20000000       0.00000000      10.80000000      55.84500000      141        4
Mn       7.20000000       1.80000000      12.60000000      54.93804400      142        5
Co       9.00000000       0.00000000      12.60000000      58.93319400      143        1
Cr       9.00000000       1.80000000      10.80000000      51.99610000      144        3
Fe       7.20000000       3.60000000       0.00000000      55.84500000      145        4
Mn       7.20000000       5.40000000       1.80000000      54.93804400      146        5
Cr       9.00000000       3.60000000       1.80000000      51.99610000      147        3
Mn       9.00000000       5.40000000       0.00000000      54.93804400      148        5
Fe       7.20000000       3.60000000       3.60000000      55.84500000      149        4
Mn       7.20000000       5.40000000       5.40000000      54.93804400      150        5
Mn       9.00000000       3.60000000       5.40000000      54.93804400      151        5
Ni       9.00000000       5.40000000       3.60000000      58.69340000      152        2
Ni       7.20000000       3.60000000       7.20000000      58.69340000      153        2
Fe       7.20000000       5.40000000       9.00000000      55.84500000      154        4
Ni       9.00000000       3.60000000       9.00000000      58.69340000      155        2
Cr       9.00000000       5.40000000       7.20000000      51.99610000      156        3
Fe       7.20000000       3.60000000      10.80000000      55.84500000      157        4
Mn       7.20000000       5.40000000      12.60000000      54.93804400      158        5
Fe       9.00000000       3.60000000      12.60000000      55.84500000      159        4
Cr       9.00000000       5.40000000      10.80000000      51.99610000      160        3
Mn       7.20000000       7.20000000       0.00000000      54.93804400      161        5
Co       7.20000000       9.00000000       1.80000000      58.93319400      162        1
Cr       9.00000000       7.20000000       1.80000000      51.99610000      163        3
Co       9.00000000       9.00000000       0.00000000      58.93319400      164        1
Cr       7.20000000       7.20000000       3.60000000      51.99610000      165        3
Mn       7.20000000       9.00000000       5.40000000      54.93804400      166        5
Fe       9.00000000       7.20000000       5.40000000      55.84500000      167        4
Co       9.00000000       9.00000000       3.60000000      58.93319400      168        1
Mn       7.20000000       7.20000000       7.20000000      54.93804400      169        5
Co       7.20000000       9.00000000       9.00000000      58.93319400      170        1
Co       9.00000000       7.20000000       9.00000000      58.93319400      171        1
Mn       9.00000000       9.00000000       7.20000000      54.93804400      172        5
Co       7.20000000       7.20000000      10.80000000      58.93319400      173        1
Co       7.20000000       9.00000000      12.60000000      58.93319400      174        1
Cr       9.00000000       7.20000000      12.60000000      51.99610000      175        3
Co       9.00000000       9.00000000      10.80000000      58.93319400      176        1
Co       7.20000000      10.80000000       0.00000000      58.93319400      177        1
Co       7.20000000      12.60000000       1.80000000      58.93319400      178        1
Co       9.00000000      10.80000000       1.80000000      58.93319400      179        1
Co       9.00000000      12.60000000       0.00000000      58.93319400      180        1
Cr       7.20000000      10.80000000       3.60000000      51.99610000      181        3
Mn       7.20000000      12.60000000       5.40000000      54.93804400      182        5
Fe       9.00000000      10.80000000       5.40000000      55.84500000      183        4
Mn       9.00000000      12.60000000       3.60000000      54.93804400      184        5
Cr       7.20000000      10.80000000       7.20000000      51.99610000      185        3
Co       7.20000000      12.60000000       9.00000000      58.93319400      186        1
Co       9.00000000      10.80000000       9.00000000      58.93319400      187        1
Cr       9.00000000      12.60000000       7.20000000      51.99610000      188        3
Co       7.20000000      10.80000000      10.80000000      58.93319400      189        1
Co       7.20000000      12.60000000      12.60000000      58.93319400      190        1
Co       9.00000000      10.80000000      12.60000000      58.93319400      191        1
Fe       9.00000000      12.60000000      10.80000000      55.84500000      192        4
Cr      10.80000000       0.00000000       0.00000000      51.99610000      193        3
Fe      10.80000000       1.80000000       1.80000000      55.84500000      194        4
Ni      12.60000000       0.00000000       1.80000000      58.69340000      195        2
Mn      12.60000000       1.80000000       0.00000000      54.93804400      196        5
Cr      10.80000000       0.00000000       3.60000000      51.99610000      197        3
Ni      10.80000000       1.80000000       5.40000000      58.69340000      198        2
Ni      12.60000000       0.00000000       5.40000000      58.69340000      199        2
Ni      12.60000000       1.80000000       3.60000000      58.69340000      200        2
Fe      10.80000000       0.00000000       7.20000000      55.84500000      201        4
Ni      10.80000000       1.80000000       9.00000000      58.69340000      202        2
Ni      12.60000000       0.00000000       9.00000000      58.69340000      203        2
Mn      12.60000000       1.80000000       7.20000000      54.93804400      204        5
Ni      10.80000000       0.00000000      10.80000000      58.69340000      205        2
Fe      10.80000000       1.80000000      12.60000000      55.84500000      206        4
Ni      12.60000000       0.00000000      12.60000000      58.69340000      207        2
Ni      12.60000000       1.80000000      10.80000000      58.69340000      208        2
Mn      10.80000000       3.60000000       0.00000000      54.93804400      209        5
Mn      10.80000000       5.40000000       1.80000000      54.93804400      210        5
Ni      12.60000000       3.60000000       1.80000000      58.69340000      211        2
Fe      12.60000000       5.40000000       0.00000000      55.84500000      212        4
Fe      10.80000000       3.60000000       3.60000000      55.84500000      213        4
Fe      10.80000000       5.40000000       5.40000000      55.84500000      214        4
Mn      12.60000000       3.60000000       5.40000000      54.93804400      215        5
Mn      12.60000000       5.40000000       3.60000000      54.93804400      216        5
Fe      10.80000000       3.60000000       7.20000000      55.84500000      217        4
Mn      10.80000000       5.40000000       9.00000000      54.93804400      218        5
Cr      12.60000000       3.60000000       9.00000000      51.99610000      219        3
Cr      12.60000000       5.40000000       7.20000000      51.99610000      220        3
Ni      10.80000000       3.60000000      10.80000000      58.69340000      221        2
Mn      10.80000000       5.40000000      12.60000000      54.93804400      222        5
Cr      12.60000000       3.60000000      12.60000000      51.99610000      223        3
Mn      12.60000000       5.40000000      10.80000000      54.93804400      224        5
Mn      10.80000000       7.20000000       0.00000000      54.93804400      225        5
Co      10.80000000       9.00000000       1.80000000      58.93319400      226        1
Co      12.60000000       7.20000000       1.80000000      58.93319400      227        1
Cr      12.60000000       9.00000000       0.00000000      51.99610000      228        3
Cr      10.80000000       7.20000000       3.60000000      51.99610000      229        3
Co      10.80000000       9.00000000       5.40000000      58.93319400      230        1
Fe      12.60000000       7.20000000       5.40000000      55.84500000      231        4
Co      12.60000000       9.00000000       3.60000000      58.93319400      232        1
Fe      10.80000000       7.20000000       7.20000000      55.84500000      233        4
Fe      10.80000000       9.00000000       9.00000000      55.84500000      234        4
Mn      12.60000000       7.20000000       9.00000000      54.93804400      235        5
Mn      12.60000000       9.00000000       7.20000000      54.93804400      236        5
Fe      10.80000000       7.20000000      10.80000000      55.84500000      237        4
Co      10.80000000       9.00000000      12.60000000      58.93319400      238        1
Mn      12.60000000       7.20000000      12.60000000      54.93804400      239        5
Co      12.60000000       9.00000000      10.80000000      58.93319400      240        1
Co      10.80000000      10.80000000       0.00000000      58.93319400      241        1
Mn      10.80000000      12.60000000       1.80000000      54.93804400      242        5
Fe      12.60000000      10.80000000       1.80000000      55.84500000      243        4
Ni      12.60000000      12.60000000       0.00000000      58.69340000      244        2
Cr      10.80000000      10.80000000       3.60000000      51.99610000      245        3
Ni      10.80000000      12.60000000       5.40000000      58.69340000      246        2
Fe      12.60000000      10.80000000       5.40000000      55.84500000      247        4
Ni      12.60000000      12.60000000       3.60000000      58.69340000      248        2
Cr      10.80000000      10.80000000       7.20000000      51.99610000      249        3
Ni      10.80000000      12.60000000       9.00000000      58.69340000      250        2
Fe      12.60000000      10.80000000       9.00000000      55.84500000      251        4
Ni      12.60000000      12.60000000       7.20000000      58.69340000      252        2
Cr      10.80000000      10.80000000      10.80000000      51.99610000      253        3
Fe      10.80000000      12.60000000      12.60000000      55.84500000      254        4
Fe      12.60000000      10.80000000      12.60000000      55.84500000      255        4
Ni      12.60000000      12.60000000      10.80000000      58.69340000      256        2
