256
Lattice="14.4 0.0 0.0 0.0 14.4 0.0 0.0 0.0 14.4" Properties=species:S:1:pos:R:3:masses:R:1:id:I:1:type:I:1 comment="(written by ASE)" energy=-1027.16603500891 pbc="T T T"
Ni       0.00000000       0.00000000       0.00000000      58.69340000        1        2
Fe       0.00000000       1.80000000       1.80000000      55.84500000        2        4
Ni       1.80000000       0.00000000       1.80000000      58.69340000        3        2
Mn       1.80000000       1.80000000       0.00000000      54.93804400        4        5
Ni       0.00000000       0.00000000       3.60000000      58.69340000        5        2
Fe       0.00000000       1.80000000       5.40000000      55.84500000        6        4
Cr       1.80000000       0.00000000       5.40000000      51.99610000        7        3
Mn       1.80000000       1.80000000       3.60000000      54.93804400        8        5
Co       0.00000000       0.00000000       7.20000000      58.93319400        9        1
Cr       0.00000000       1.80000000       9.00000000      51.99610000       10        3
Ni       1.80000000       0.00000000       9.00000000      58.69340000       11        2
Mn       1.80000000       1.80000000       7.20000000      54.93804400       12        5
Co       0.00000000       0.00000000      10.80000000      58.93319400       13        1
Cr       0.00000000       1.80000000      12.60000000      51.99610000       14        3
Mn       1.80000000       0.00000000      12.60000000      54.93804400       15        5
Mn       1.80000000       1.80000000      10.80000000      54.93804400       16        5
Mn       0.00000000       3.60000000       0.00000000      54.93804400       17        5
Mn       0.00000000       5.40000000       1.80000000      54.93804400       18        5
Cr       1.80000000       3.60000000       1.80000000      51.99610000       19        3
Mn       1.80000000       5.40000000       0.00000000      54.93804400       20        5
Co       0.00000000       3.60000000       3.60000000      58.93319400       21        1
Fe       0.00000000       5.40000000       5.40000000      55.84500000       22        4
Ni       1.80000000       3.60000000       5.40000000      58.69340000       23        2
Fe       1.80000000       5.40000000       3.60000000      55.84500000       24        4
Co       0.00000000       3.60000000       7.20000000      58.93319400       25        1
Ni       0.00000000       5.40000000       9.00000000      58.69340000       26        2
Cr       1.80000000       3.60000000       9.00000000      51.99610000       27        3
Co       1.80000000       5.40000000       7.20000000      58.93319400       28        1
Co       0.00000000       3.60000000      10.80000000      58.93319400       29        1
Ni       0.00000000       5.40000000      12.60000000      58.69340000       30        2
Cr       1.80000000       3.60000000      12.60000000      51.99610000       31        3
Mn       1.80000000       5.40000000      10.80000000      54.93804400       32        5
Ni       0.00000000       7.20000000       0.00000000      58.69340000       33        2
Mn       0.00000000       9.00000000       1.80000000      54.93804400       34        5
Fe       1.80000000       7.20000000       1.80000000      55.84500000       35        4
Fe       1.80000000       9.00000000       0.00000000      55.84500000       36        4
Co       0.00000000       7.20000000       3.60000000      58.93319400       37        1
Mn       0.00000000       9.00000000       5.40000000      54.93804400       38        5
Fe       1.80000000       7.20000000       5.40000000      55.84500000       39        4
Ni       1.80000000       9.00000000       3.60000000      58.69340000       40        2
Fe       0.00000000       7.20000000       7.20000000      55.84500000       41        4
Fe       0.00000000       9.00000000       9.00000000      55.84500000       42        4
Fe       1.80000000       7.20000000       9.00000000      55.84500000       43        4
Co       1.80000000       9.00000000       7.20000000      58.93319400       44        1
Fe       0.00000000       7.20000000      10.80000000      55.84500000       45        4
Fe       0.00000000       9.00000000      12.60000000      55.84500000       46        4
Ni       1.80000000       7.20000000      12.60000000      58.69340000       47        2
Co       1.80000000       9.00000000      10.80000000      58.93319400       48        1
Co       0.00000000      10.80000000       0.00000000      58.93319400       49        1
Mn       0.00000000      12.60000000       1.80000000      54.93804400       50        5
Mn       1.80000000      10.80000000       1.80000000      54.93804400       51        5
Cr       1.80000000      12.60000000       0.00000000      51.99610000       52        3
Cr       0.00000000      10.80000000       3.60000000      51.99610000       53        3
Cr       0.00000000      12.60000000       5.40000000      51.99610000       54        3
Mn       1.80000000      10.80000000       5.40000000      54.93804400       55        5
Co       1.80000000      12.60000000       3.60000000      58.93319400       56        1
Cr       0.00000000      10.80000000       7.20000000      51.99610000       57        3
Cr       0.00000000      12.60000000       9.00000000      51.99610000       58        3
Mn       1.80000000      10.80000000       9.00000000      54.93804400       59        5
Mn       1.80000000      12.60000000       7.20000000      54.93804400       60        5
Co       0.00000000      10.80000000      10.80000000      58.93319400       61        1
Mn       0.00000000      12.60000000      12.60000000      54.93804400       62        5
Ni       1.80000000      10.80000000      12.60000000      58.69340000       63        2
Cr       1.80000000      12.60000000      10.80000000      51.99610000       64        3
Co       3.60000000       0.00000000       0.00000000      58.93319400       65        1
Cr       3.60000000       1.80000000       1.80000000      51.99610000       66        3
Ni       5.40000000       0.00000000       1.80000000      58.69340000       67        2
Fe       5.40000000       1.80000000       0.00000000      55.84500000       68        4
Mn       3.60000000       0.00000000       3.60000000      54.93804400       69        5
Cr       3.60000000       1.80000000       5.40000000      51.99610000       70        3
Ni       5.40000000       0.00000000       5.40000000      58.69340000       71        2
Mn       5.40000000       1.80000000       3.60000000      54.93804400       72        5
Mn       3.60000000       0.00000000       7.20000000      54.93804400       73        5
Cr       3.60000000       1.80000000       9.00000000      51.99610000       74        3
Mn       5.40000000       0.00000000       9.00000000      54.93804400       75        5
Mn       5.40000000       1.80000000       7.20000000      54.93804400       76        5
Co       3.60000000       0.00000000      10.80000000      58.93319400       77        1
Cr       3.60000000       1.80000000      12.60000000      51.99610000       78        3
Mn       5.40000000       0.00000000      12.60000000      54.93804400       79        5
Mn       5.40000000       1.80000000      10.80000000      54.93804400       80        5
Mn       3.60000000       3.60000000       0.00000000      54.93804400       81        5
Ni       3.60000000       5.40000000       1.80000000      58.69340000       82        2
Ni       5.40000000       3.60000000       1.80000000      58.69340000       83        2
Cr       5.40000000       5.40000000       0.00000000      51.99610000       84        3
Co       3.60000000       3.60000000       3.60000000      58.93319400       85        1
Fe       3.60000000       5.40000000       5.40000000      55.84500000       86        4
Cr       5.40000000       3.60000000       5.40000000      51.99610000       87        3
Mn       5.40000000       5.40000000       3.60000000      54.93804400       88        5
Mn       3.60000000       3.60000000       7.20000000      54.93804400       89        5
Cr       3.60000000       5.40000000       9.00000000      51.99610000       90        3
Co       5.40000000       3.60000000       9.00000000      58.93319400       91        1
Co       5.40000000       5.40000000       7.20000000      58.93319400       92        1
Ni       3.60000000       3.60000000      10.80000000      58.69340000       93        2
Cr       3.60000000       5.40000000      12.60000000      51.99610000       94        3
Co       5.40000000       3.60000000      12.60000000      58.93319400       95        1
Mn       5.40000000       5.40000000      10.80000000      54.93804400       96        5
Co       3.60000000       7.20000000       0.00000000      58.93319400       97        1
Ni       3.60000000       9.00000000       1.80000000      58.69340000       98        2
Mn       5.40000000       7.20000000       1.80000000      54.93804400       99        5
Cr       5.40000000       9.00000000       0.00000000      51.99610000      100        3
Co       3.60000000       7.20000000       3.60000000      58.93319400      101        1
Fe       3.60000000       9.00000000       5.40000000      55.84500000      102        4
Ni       5.40000000       7.20000000       5.40000000      58.69340000      103        2
Fe       5.40000000       9.00000000       3.60000000      55.84500000      104        4
Fe       3.60000000       7.20000000       7.20000000      55.84500000      105        4
Cr       3.60000000       9.00000000       9.00000000      51.99610000      106        3
Mn       5.40000000       7.20000000       9.00000000      54.93804400      107        5
Co       5.40000000       9.00000000       7.20000000      58.93319400      108        1
Cr       3.60000000       7.20000000      10.80000000      51.99610000      109        3
Ni       3.60000000       9.00000000      12.60000000      58.69340000      110        2
Mn       5.40000000       7.20000000      12.60000000      54.93804400      111        5
Co       5.40000000       9.00000000      10.80000000      58.93319400      112        1
Mn       3.60000000      10.80000000       0.00000000      54.93804400      113        5
Ni       3.60000000      12.60000000       1.80000000      58.69340000      114        2
Ni       5.40000000      10.80000000       1.80000000      58.69340000      115        2
Ni       5.40000000      12.60000000       0.00000000      58.69340000      116        2
Fe       3.60000000      10.80000000       3.60000000      55.84500000      117        4
Ni       3.60000000      12.60000000       5.40000000      58.69340000      118        2
Fe       5.40000000      10.80000000       5.40000000      55.84500000      119        4
Co       5.40000000      12.60000000       3.60000000      58.93319400      120        1
Ni       3.60000000      10.80000000       7.20000000      58.69340000      121        2
Cr       3.60000000      12.60000000       9.00000000      51.99610000      122        3
Mn       5.40000000      10.80000000       9.00000000      54.93804400      123        5
Co       5.40000000      12.60000000       7.20000000      58.93319400      124        1
Mn       3.60000000      10.80000000      10.80000000      54.93804400      125        5
Co       3.60000000      12.60000000      12.60000000      58.93319400      126        1
Ni       5.40000000      10.80000000      12.60000000      58.69340000      127        2
Cr       5.40000000      12.60000000      10.80000000      51.99610000      128        3
Co       7.20000000       0.00000000       0.00000000      58.93319400      129        1
Fe       7.20000000       1.80000000       1.80000000      55.84500000      130        4
Fe       9.00000000       0.00000000       1.80000000      55.84500000      131        4
Ni       9.00000000       1.80000000       0.00000000      58.69340000      132        2
Ni       7.20000000       0.00000000       3.60000000      58.69340000      133        2
Ni       7.20000000       1.80000000       5.40000000      58.69340000      134        2
Ni       9.00000000       0.00000000       5.40000000      58.69340000      135        2
Fe       9.00000000       1.80000000       3.60000000      55.84500000      136        4
Fe       7.20000000       0.00000000       7.20000000      55.84500000      137        4
Cr       7.20000000       1.80000000       9.00000000      51.99610000      138        3
Co       9.00000000       0.00000000       9.00000000      58.93319400      139        1
Mn       9.00000000       1.80000000       7.20000000      54.93804400      140        5
Cr       7.20000000       0.00000000      10.80000000      51.99610000      141        3
Cr       7.20000000       1.80000000      12.60000000      51.99610000      142        3
Ni       9.00000000       0.00000000      12.60000000      58.69340000      143        2
Mn       9.00000000       1.80000000      10.80000000      54.93804400      144        5
Mn       7.20000000       3.60000000       0.00000000      54.93804400      145        5
Ni       7.20000000       5.40000000       1.80000000      58.69340000      146        2
Ni       9.00000000       3.60000000       1.80000000      58.69340000      147        2
Mn       9.00000000       5.40000000       0.00000000      54.93804400      148        5
Co       7.20000000       3.60000000       3.60000000      58.93319400      149        1
Cr       7.20000000       5.40000000       5.40000000      51.99610000      150        3
Ni       9.00000000       3.60000000       5.40000000      58.69340000      151        2
Mn       9.00000000       5.40000000       3.60000000      54.93804400      152        5
Mn       7.20000000       3.60000000       7.20000000      54.93804400      153        5
Cr       7.20000000       5.40000000       9.00000000      51.99610000      154        3
Co       9.00000000       3.60000000       9.00000000      58.93319400      155        1
Mn       9.00000000       5.40000000       7.20000000      54.93804400      156        5
Ni       7.20000000       3.60000000      10.80000000      58.69340000      157        2
Cr       7.20000000       5.40000000      12.60000000      51.99610000      158        3
Co       9.00000000       3.60000000      12.60000000      58.93319400      159        1
Mn       9.00000000       5.40000000      10.80000000      54.93804400      160        5
Co       7.20000000       7.20000000       0.00000000      58.93319400      161        1
Mn       7.20000000       9.00000000       1.80000000      54.93804400      162        5
Cr       9.00000000       7.20000000       1.80000000      51.99610000      163        3
Cr       9.00000000       9.00000000       0.00000000      51.99610000      164        3
Cr       7.20000000       7.20000000       3.60000000      51.99610000      165        3
Ni       7.20000000       9.00000000       5.40000000      58.69340000      166        2
Co       9.00000000       7.20000000       5.40000000      58.93319400      167        1
Mn       9.00000000       9.00000000       3.60000000      54.93804400      168        5
Fe       7.20000000       7.20000000       7.20000000      55.84500000      169        4
Fe       7.20000000       9.00000000       9.00000000      55.84500000      170        4
Co       9.00000000       7.20000000       9.00000000      58.93319400      171        1
Fe       9.00000000       9.00000000       7.20000000      55.84500000      172        4
Cr       7.20000000       7.20000000      10.80000000      51.99610000      173        3
Mn       7.20000000       9.00000000      12.60000000      54.93804400      174        5
Co       9.00000000       7.20000000      12.60000000      58.93319400      175        1
Mn       9.00000000       9.00000000      10.80000000      54.93804400      176        5
Co       7.20000000      10.80000000       0.00000000      58.93319400      177        1
Fe       7.20000000      12.60000000       1.80000000      55.84500000      178        4
Cr       9.00000000      10.80000000       1.80000000      51.99610000      179        3
Fe       9.00000000      12.60000000       0.00000000      55.84500000      180        4
Fe       7.20000000      10.80000000       3.60000000      55.84500000      181        4
Fe       7.20000000      12.60000000       5.40000000      55.84500000      182        4
Co       9.00000000      10.80000000       5.40000000      58.93319400      183        1
Mn       9.00000000      12.60000000       3.60000000      54.93804400      184        5
Fe       7.20000000      10.80000000       7.20000000      55.84500000      185        4
Co       7.20000000      12.60000000       9.00000000      58.93319400      186        1
Fe       9.00000000      10.80000000       9.00000000      55.84500000      187        4
Fe       9.00000000      12.60000000       7.20000000      55.84500000      188        4
Cr       7.20000000      10.80000000      10.80000000      51.99610000      189        3
Mn       7.20000000      12.60000000      12.60000000      54.93804400      190        5
Cr       9.00000000      10.80000000      12.60000000      51.99610000      191        3
Mn       9.00000000      12.60000000      10.80000000      54.93804400      192        5
Fe      10.80000000       0.00000000       0.00000000      55.84500000      193        4
Co      10.80000000       1.80000000       1.80000000      58.93319400      194        1
Mn      12.60000000       0.00000000       1.80000000      54.93804400      195        5
Ni      12.60000000       1.80000000       0.00000000      58.69340000      196        2
Ni      10.80000000       0.00000000       3.60000000      58.69340000      197        2
Fe      10.80000000       1.80000000       5.40000000      55.84500000      198        4
Fe      12.60000000       0.00000000       5.40000000      55.84500000      199        4
Fe      12.60000000       1.80000000       3.60000000      55.84500000      200        4
Ni      10.80000000       0.00000000       7.20000000      58.69340000      201        2
Cr      10.80000000       1.80000000       9.00000000      51.99610000      202        3
Mn      12.60000000       0.00000000       9.00000000      54.93804400      203        5
Ni      12.60000000       1.80000000       7.20000000      58.69340000      204        2
Co      10.80000000       0.00000000      10.80000000      58.93319400      205        1
Fe      10.80000000       1.80000000      12.60000000      55.84500000      206        4
Mn      12.60000000       0.00000000      12.60000000      54.93804400      207        5
Mn      12.60000000       1.80000000      10.80000000      54.93804400      208        5
Mn      10.80000000       3.60000000       0.00000000      54.93804400      209        5
Co      10.80000000       5.40000000       1.80000000      58.93319400      210        1
Cr      12.60000000       3.60000000       1.80000000      51.99610000      211        3
Ni      12.60000000       5.40000000       0.00000000      58.69340000      212        2
Fe      10.80000000       3.60000000       3.60000000      55.84500000      213        4
Ni      10.80000000       5.40000000       5.40000000      58.69340000      214        2
Fe      12.60000000       3.60000000       5.40000000      55.84500000      215        4
Fe      12.60000000       5.40000000       3.60000000      55.84500000      216        4
Ni      10.80000000       3.60000000       7.20000000      58.69340000      217        2
Cr      10.80000000       5.40000000       9.00000000      51.99610000      218        3
Mn      12.60000000       3.60000000       9.00000000      54.93804400      219        5
Mn      12.60000000       5.40000000       7.20000000      54.93804400      220        5
Cr      10.80000000       3.60000000      10.80000000      51.99610000      221        3
Cr      10.80000000       5.40000000      12.60000000      51.99610000      222        3
Co      12.60000000       3.60000000      12.60000000      58.93319400      223        1
Mn      12.60000000       5.40000000      10.80000000      54.93804400      224        5
Mn      10.80000000       7.20000000       0.00000000      54.93804400      225        5
Co      10.80000000       9.00000000       1.80000000      58.93319400      226        1
Ni      12.60000000       7.20000000       1.80000000      58.69340000      227        2
Fe      12.60000000       9.00000000       0.00000000      55.84500000      228        4
Fe      10.80000000       7.20000000       3.60000000      55.84500000      229        4
Fe      10.80000000       9.00000000       5.40000000      55.84500000      230        4
Ni      12.60000000       7.20000000       5.40000000      58.69340000      231        2
Fe      12.60000000       9.00000000       3.60000000      55.84500000      232        4
Fe      10.80000000       7.20000000       7.20000000      55.84500000      233        4
Fe      10.80000000       9.00000000       9.00000000      55.84500000      234        4
Co      12.60000000       7.20000000       9.00000000      58.93319400      235        1
Co      12.60000000       9.00000000       7.20000000      58.93319400      236        1
Ni      10.80000000       7.20000000      10.80000000      58.69340000      237        2
Co      10.80000000       9.00000000      12.60000000      58.93319400      238        1
Fe      12.60000000       7.20000000      12.60000000      55.84500000      239        4
Fe      12.60000000       9.00000000      10.80000000      55.84500000      240        4
Mn      10.80000000      10.80000000       0.00000000      54.93804400      241        5
Co      10.80000000      12.60000000       1.80000000      58.93319400      242        1
Cr      12.60000000      10.80000000       1.80000000      51.99610000      243        3
Cr      12.60000000      12.60000000       0.00000000      51.99610000      244        3
Cr      10.80000000      10.80000000       3.60000000      51.99610000      245        3
Fe      10.80000000      12.60000000       5.40000000      55.84500000      246        4
Co      12.60000000      10.80000000       5.40000000      58.93319400      247        1
Mn      12.60000000      12.60000000       3.60000000      54.93804400      248        5
Fe      10.80000000      10.80000000       7.20000000      55.84500000      249        4
Fe      10.80000000      12.60000000       9.00000000      55.84500000      250        4
Co      12.60000000      10.80000000       9.00000000      58.93319400      251        1
Mn      12.60000000      12.60000000       7.20000000      54.93804400      252        5
Fe      10.80000000      10.80000000      10.80000000      55.84500000      253        4
Co      10.80000000      12.60000000      12.60000000      58.93319400      254        1
Ni      12.60000000      10.80000000      12.60000000      58.69340000      255        2
Cr      12.60000000      12.60000000      10.80000000      51.99610000      256        3
