256
Lattice="14.4 0.0 0.0 0.0 14.4 0.0 0.0 0.0 14.4" Properties=species:S:1:pos:R:3:masses:R:1:id:I:1:type:I:1 comment="(written by ASE)" energy=-1022.26412577511 pbc="T T T"
Ni       0.00000000       0.00000000       0.00000000      58.69340000        1        2
Cr       0.00000000       1.80000000       1.80000000      51.99610000        2        3
Co       1.80000000       0.00000000       1.80000000      58.93319400        3        1
Mn       1.80000000       1.80000000       0.00000000      54.93804400        4        5
Co       0.00000000       0.00000000       3.60000000      58.93319400        5        1
Mn       0.00000000       1.80000000       5.40000000      54.93804400        6        5
Mn       1.80000000       0.00000000       5.40000000      54.93804400        7        5
Cr       1.80000000       1.80000000       3.60000000      51.99610000        8        3
Mn       0.00000000       0.00000000       7.20000000      54.93804400        9        5
Co       0.00000000       1.80000000       9.00000000      58.93319400       10        1
Mn       1.80000000       0.00000000       9.00000000      54.93804400       11        5
Mn       1.80000000       1.80000000       7.20000000      54.93804400       12        5
Mn       0.00000000       0.00000000      10.80000000      54.93804400       13        5
Fe       0.00000000       1.80000000      12.60000000      55.84500000       14        4
Mn       1.80000000       0.00000000      12.60000000      54.93804400       15        5
Mn       1.80000000       1.80000000      10.80000000      54.93804400       16        5
Co       0.00000000       3.60000000       0.00000000      58.93319400       17        1
Cr       0.00000000       5.40000000       1.80000000      51.99610000       18        3
Co       1.80000000       3.60000000       1.80000000      58.93319400       19        1
Cr       1.80000000       5.40000000       0.00000000      51.99610000       20        3
Co       0.00000000       3.60000000       3.60000000      58.93319400       21        1
Mn       0.00000000       5.40000000       5.40000000      54.93804400       22        5
Mn       1.80000000       3.60000000       5.40000000      54.93804400       23        5
Co       1.80000000       5.40000000       3.60000000      58.93319400       24        1
Ni       0.00000000       3.60000000       7.20000000      58.69340000       25        2
Fe       0.00000000       5.40000000       9.00000000      55.84500000       26        4
Cr       1.80000000       3.60000000       9.00000000      51.99610000       27        3
Fe       1.80000000       5.40000000       7.20000000      55.84500000       28        4
Ni       0.00000000       3.60000000      10.80000000      58.69340000       29        2
Fe       0.00000000       5.40000000      12.60000000      55.84500000       30        4
Cr       1.80000000       3.60000000      12.60000000      51.99610000       31        3
Cr       1.80000000       5.40000000      10.80000000      51.99610000       32        3
Ni       0.00000000       7.20000000       0.00000000      58.69340000       33        2
Fe       0.00000000       9.00000000       1.80000000      55.84500000       34        4
Co       1.80000000       7.20000000       1.80000000      58.93319400       35        1
Mn       1.80000000       9.00000000       0.00000000      54.93804400       36        5
Ni       0.00000000       7.20000000       3.60000000      58.69340000       37        2
Fe       0.00000000       9.00000000       5.40000000      55.84500000       38        4
Mn       1.80000000       7.20000000       5.40000000      54.93804400       39        5
Fe       1.80000000       9.00000000       3.60000000      55.84500000       40        4
Cr       0.00000000       7.20000000       7.20000000      51.99610000       41        3
Fe       0.00000000       9.00000000       9.00000000      55.84500000       42        4
Ni       1.80000000       7.20000000       9.00000000      58.69340000       43        2
Fe       1.80000000       9.00000000       7.20000000      55.84500000       44        4
Ni       0.00000000       7.20000000      10.80000000      58.69340000       45        2
Fe       0.00000000       9.00000000      12.60000000      55.84500000       46        4
Fe       1.80000000       7.20000000      12.60000000      55.84500000       47        4
Ni       1.80000000       9.00000000      10.80000000      58.69340000       48        2
Ni       0.00000000      10.80000000       0.00000000      58.69340000       49        2
Cr       0.00000000      12.60000000       1.80000000      51.99610000       50        3
Fe       1.80000000      10.80000000       1.80000000      55.84500000       51        4
Fe       1.80000000      12.60000000       0.00000000      55.84500000       52        4
Ni       0.00000000      10.80000000       3.60000000      58.69340000       53        2
Mn       0.00000000      12.60000000       5.40000000      54.93804400       54        5
Ni       1.80000000      10.80000000       5.40000000      58.69340000       55        2
Fe       1.80000000      12.60000000       3.60000000      55.84500000       56        4
Cr       0.00000000      10.80000000       7.20000000      51.99610000       57        3
Co       0.00000000      12.60000000       9.00000000      58.93319400       58        1
Cr       1.80000000      10.80000000       9.00000000      51.99610000       59        3
Co       1.80000000      12.60000000       7.20000000      58.93319400       60        1
Fe       0.00000000      10.80000000      10.80000000      55.84500000       61        4
Fe       0.00000000      12.60000000      12.60000000      55.84500000       62        4
Mn       1.80000000      10.80000000      12.60000000      54.93804400       63        5
Ni       1.80000000      12.60000000      10.80000000      58.69340000       64        2
Ni       3.60000000       0.00000000       0.00000000      58.69340000       65        2
Cr       3.60000000       1.80000000       1.80000000      51.99610000       66        3
Fe       5.40000000       0.00000000       1.80000000      55.84500000       67        4
Fe       5.40000000       1.80000000       0.00000000      55.84500000       68        4
Mn       3.60000000       0.00000000       3.60000000      54.93804400       69        5
Co       3.60000000       1.80000000       5.40000000      58.93319400       70        1
Fe       5.40000000       0.00000000       5.40000000      55.84500000       71        4
Ni       5.40000000       1.80000000       3.60000000      58.69340000       72        2
Mn       3.60000000       0.00000000       7.20000000      54.93804400       73        5
Co       3.60000000       1.80000000       9.00000000      58.93319400       74        1
Mn       5.40000000       0.00000000       9.00000000      54.93804400       75        5
Mn       5.40000000       1.80000000       7.20000000      54.93804400       76        5
Co       3.60000000       0.00000000      10.80000000      58.93319400       77        1
Mn       3.60000000       1.80000000      12.60000000      54.93804400       78        5
Fe       5.40000000       0.00000000      12.60000000      55.84500000       79        4
Mn       5.40000000       1.80000000      10.80000000      54.93804400       80        5
Co       3.60000000       3.60000000       0.00000000      58.93319400       81        1
Cr       3.60000000       5.40000000       1.80000000      51.99610000       82        3
Ni       5.40000000       3.60000000       1.80000000      58.69340000       83        2
Mn       5.40000000       5.40000000       0.00000000      54.93804400       84        5
Fe       3.60000000       3.60000000       3.60000000      55.84500000       85        4
Ni       3.60000000       5.40000000       5.40000000      58.69340000       86        2
Mn       5.40000000       3.60000000       5.40000000      54.93804400       87        5
Ni       5.40000000       5.40000000       3.60000000      58.69340000       88        2
Co       3.60000000       3.60000000       7.20000000      58.93319400       89        1
Ni       3.60000000       5.40000000       9.00000000      58.69340000       90        2
Mn       5.40000000       3.60000000       9.00000000      54.93804400       91        5
Mn       5.40000000       5.40000000       7.20000000      54.93804400       92        5
Fe       3.60000000       3.60000000      10.80000000      55.84500000       93        4
Ni       3.60000000       5.40000000      12.60000000      58.69340000       94        2
Co       5.40000000       3.60000000      12.60000000      58.93319400       95        1
Mn       5.40000000       5.40000000      10.80000000      54.93804400       96        5
Co       3.60000000       7.20000000       0.00000000      58.93319400       97        1
Ni       3.60000000       9.00000000       1.80000000      58.69340000       98        2
Co       5.40000000       7.20000000       1.80000000      58.93319400       99        1
Fe       5.40000000       9.00000000       0.00000000      55.84500000      100        4
Mn       3.60000000       7.20000000       3.60000000      54.93804400      101        5
Ni       3.60000000       9.00000000       5.40000000      58.69340000      102        2
Fe       5.40000000       7.20000000       5.40000000      55.84500000      103        4
Mn       5.40000000       9.00000000       3.60000000      54.93804400      104        5
Fe       3.60000000       7.20000000       7.20000000      55.84500000      105        4
Ni       3.60000000       9.00000000       9.00000000      58.69340000      106        2
Fe       5.40000000       7.20000000       9.00000000      55.84500000      107        4
Ni       5.40000000       9.00000000       7.20000000      58.69340000      108        2
Fe       3.60000000       7.20000000      10.80000000      55.84500000      109        4
Mn       3.60000000       9.00000000      12.60000000      54.93804400      110        5
Mn       5.40000000       7.20000000      12.60000000      54.93804400      111        5
Ni       5.40000000       9.00000000      10.80000000      58.69340000      112        2
Ni       3.60000000      10.80000000       0.00000000      58.69340000      113        2
Mn       3.60000000      12.60000000       1.80000000      54.93804400      114        5
Fe       5.40000000      10.80000000       1.80000000      55.84500000      115        4
Cr       5.40000000      12.60000000       0.00000000      51.99610000      116        3
Ni       3.60000000      10.80000000       3.60000000      58.69340000      117        2
Ni       3.60000000      12.60000000       5.40000000      58.69340000      118        2
Fe       5.40000000      10.80000000       5.40000000      55.84500000      119        4
Cr       5.40000000      12.60000000       3.60000000      51.99610000      120        3
Fe       3.60000000      10.80000000       7.20000000      55.84500000      121        4
Ni       3.60000000      12.60000000       9.00000000      58.69340000      122        2
Fe       5.40000000      10.80000000       9.00000000      55.84500000      123        4
Ni       5.40000000      12.60000000       7.20000000      58.69340000      124        2
Fe       3.60000000      10.80000000      10.80000000      55.84500000      125        4
Fe       3.60000000      12.60000000      12.60000000      55.84500000      126        4
Cr       5.40000000      10.80000000      12.60000000      51.99610000      127        3
Cr       5.40000000      12.60000000      10.80000000      51.99610000      128        3
Cr       7.20000000       0.00000000       0.00000000      51.99610000      129        3
Ni       7.20000000       1.80000000       1.80000000      58.69340000      130        2
Fe       9.00000000       0.00000000       1.80000000      55.84500000      131        4
Ni       9.00000000       1.80000000       0.00000000      58.69340000      132        2
Cr       7.20000000       0.00000000       3.60000000      51.99610000      133        3
Mn       7.20000000       1.80000000       5.40000000      54.93804400      134        5
Co       9.00000000       0.00000000       5.40000000      58.93319400      135        1
Cr       9.00000000       1.80000000       3.60000000      51.99610000      136        3
Mn       7.20000000       0.00000000       7.20000000      54.93804400      137        5
Co       7.20000000       1.80000000       9.00000000      58.93319400      138        1
Co       9.00000000       0.00000000       9.00000000      58.93319400      139        1
Mn       9.00000000       1.80000000       7.20000000      54.93804400      140        5
Mn       7.20000000       0.00000000      10.80000000      54.93804400      141        5
Ni       7.20000000       1.80000000      12.60000000      58.69340000      142        2
Mn       9.00000000       0.00000000      12.60000000      54.93804400      143        5
Mn       9.00000000       1.80000000      10.80000000      54.93804400      144        5
Mn       7.20000000       3.60000000       0.00000000      54.93804400      145        5
Co       7.20000000       5.40000000       1.80000000      58.93319400      146        1
Mn       9.00000000       3.60000000       1.80000000      54.93804400      147        5
Mn       9.00000000       5.40000000       0.00000000      54.93804400      148        5
Fe       7.20000000       3.60000000       3.60000000      55.84500000      149        4
Mn       7.20000000       5.40000000       5.40000000      54.93804400      150        5
Co       9.00000000       3.60000000       5.40000000      58.93319400      151        1
Cr       9.00000000       5.40000000       3.60000000      51.99610000      152        3
Co       7.20000000       3.60000000       7.20000000      58.93319400      153        1
Ni       7.20000000       5.40000000       9.00000000      58.69340000      154        2
Mn       9.00000000       3.60000000       9.00000000      54.93804400      155        5
Mn       9.00000000       5.40000000       7.20000000      54.93804400      156        5
Fe       7.20000000       3.60000000      10.80000000      55.84500000      157        4
Ni       7.20000000       5.40000000      12.60000000      58.69340000      158        2
Fe       9.00000000       3.60000000      12.60000000      55.84500000      159        4
Cr       9.00000000       5.40000000      10.80000000      51.99610000      160        3
Mn       7.20000000       7.20000000       0.00000000      54.93804400      161        5
Mn       7.20000000       9.00000000       1.80000000      54.93804400      162        5
Mn       9.00000000       7.20000000       1.80000000      54.93804400      163        5
Co       9.00000000       9.00000000       0.00000000      58.93319400      164        1
Co       7.20000000       7.20000000       3.60000000      58.93319400      165        1
Co       7.20000000       9.00000000       5.40000000      58.93319400      166        1
Co       9.00000000       7.20000000       5.40000000      58.93319400      167        1
Mn       9.00000000       9.00000000       3.60000000      54.93804400      168        5
Mn       7.20000000       7.20000000       7.20000000      54.93804400      169        5
Co       7.20000000       9.00000000       9.00000000      58.93319400      170        1
Ni       9.00000000       7.20000000       9.00000000      58.69340000      171        2
Mn       9.00000000       9.00000000       7.20000000      54.93804400      172        5
Fe       7.20000000       7.20000000      10.80000000      55.84500000      173        4
Co       7.20000000       9.00000000      12.60000000      58.93319400      174        1
Fe       9.00000000       7.20000000      12.60000000      55.84500000      175        4
Ni       9.00000000       9.00000000      10.80000000      58.69340000      176        2
Cr       7.20000000      10.80000000       0.00000000      51.99610000      177        3
Co       7.20000000      12.60000000       1.80000000      58.93319400      178        1
Co       9.00000000      10.80000000       1.80000000      58.93319400      179        1
Fe       9.00000000      12.60000000       0.00000000      55.84500000      180        4
Cr       7.20000000      10.80000000       3.60000000      51.99610000      181        3
Co       7.20000000      12.60000000       5.40000000      58.93319400      182        1
Co       9.00000000      10.80000000       5.40000000      58.93319400      183        1
Cr       9.00000000      12.60000000       3.60000000      51.99610000      184        3
Mn       7.20000000      10.80000000       7.20000000      54.93804400      185        5
Co       7.20000000      12.60000000       9.00000000      58.93319400      186        1
Mn       9.00000000      10.80000000       9.00000000      54.93804400      187        5
Mn       9.00000000      12.60000000       7.20000000      54.93804400      188        5
Fe       7.20000000      10.80000000      10.80000000      55.84500000      189        4
Co       7.20000000      12.60000000      12.60000000      58.93319400      190        1
Cr       9.00000000      10.80000000      12.60000000      51.99610000      191        3
Mn       9.00000000      12.60000000      10.80000000      54.93804400      192        5
Cr      10.80000000       0.00000000       0.00000000      51.99610000      193        3
Co      10.80000000       1.80000000       1.80000000      58.93319400      194        1
Cr      12.60000000       0.00000000       1.80000000      51.99610000      195        3
Cr      12.60000000       1.80000000       0.00000000      51.99610000      196        3
Co      10.80000000       0.00000000       3.60000000      58.93319400      197        1
Mn      10.80000000       1.80000000       5.40000000      54.93804400      198        5
Ni      12.60000000       0.00000000       5.40000000      58.69340000      199        2
Cr      12.60000000       1.80000000       3.60000000      51.99610000      200        3
Mn      10.80000000       0.00000000       7.20000000      54.93804400      201        5
Co      10.80000000       1.80000000       9.00000000      58.93319400      202        1
Mn      12.60000000       0.00000000       9.00000000      54.93804400      203        5
Fe      12.60000000       1.80000000       7.20000000      55.84500000      204        4
Co      10.80000000       0.00000000      10.80000000      58.93319400      205        1
Cr      10.80000000       1.80000000      12.60000000      51.99610000      206        3
Ni      12.60000000       0.00000000      12.60000000      58.69340000      207        2
Fe      12.60000000       1.80000000      10.80000000      55.84500000      208        4
Fe      10.80000000       3.60000000       0.00000000      55.84500000      209        4
Co      10.80000000       5.40000000       1.80000000      58.93319400      210        1
Co      12.60000000       3.60000000       1.80000000      58.93319400      211        1
Fe      12.60000000       5.40000000       0.00000000      55.84500000      212        4
Cr      10.80000000       3.60000000       3.60000000      51.99610000      213        3
Cr      10.80000000       5.40000000       5.40000000      51.99610000      214        3
Co      12.60000000       3.60000000       5.40000000      58.93319400      215        1
Cr      12.60000000       5.40000000       3.60000000      51.99610000      216        3
Mn      10.80000000       3.60000000       7.20000000      54.93804400      217        5
Co      10.80000000       5.40000000       9.00000000      58.93319400      218        1
Cr      12.60000000       3.60000000       9.00000000      51.99610000      219        3
Fe      12.60000000       5.40000000       7.20000000      55.84500000      220        4
Cr      10.80000000       3.60000000      10.80000000      51.99610000      221        3
Ni      10.80000000       5.40000000      12.60000000      58.69340000      222        2
Ni      12.60000000       3.60000000      12.60000000      58.69340000      223        2
Fe      12.60000000       5.40000000      10.80000000      55.84500000      224        4
Ni      10.80000000       7.20000000       0.00000000      58.69340000      225        2
Cr      10.80000000       9.00000000       1.80000000      51.99610000      226        3
Cr      12.60000000       7.20000000       1.80000000      51.99610000      227        3
Fe      12.60000000       9.00000000       0.00000000      55.84500000      228        4
Co      10.80000000       7.20000000       3.60000000      58.93319400      229        1
Cr      10.80000000       9.00000000       5.40000000      51.99610000      230        3
Co      12.60000000       7.20000000       5.40000000      58.93319400      231        1
Cr      12.60000000       9.00000000       3.60000000      51.99610000      232        3
Mn      10.80000000       7.20000000       7.20000000      54.93804400      233        5
Fe      10.80000000       9.00000000       9.00000000      55.84500000      234        4
Ni      12.60000000       7.20000000       9.00000000      58.69340000      235        2
Cr      12.60000000       9.00000000       7.20000000      51.99610000      236        3
Fe      10.80000000       7.20000000      10.80000000      55.84500000      237        4
Ni      10.80000000       9.00000000      12.60000000      58.69340000      238        2
Cr      12.60000000       7.20000000      12.60000000      51.99610000      239        3
Cr      12.60000000       9.00000000      10.80000000      51.99610000      240        3
Cr      10.80000000      10.80000000       0.00000000      51.99610000      241        3
Ni      10.80000000      12.60000000       1.80000000      58.69340000      242        2
Cr      12.60000000      10.80000000       1.80000000      51.99610000      243        3
Fe      12.60000000      12.60000000       0.00000000      55.84500000      244        4
Cr      10.80000000      10.80000000       3.60000000      51.99610000      245        3
Cr      10.80000000      12.60000000       5.40000000      51.99610000      246        3
Co      12.60000000      10.80000000       5.40000000      58.93319400      247        1
Fe      12.60000000      12.60000000       3.60000000      55.84500000      248        4
Co      10.80000000      10.80000000       7.20000000      58.93319400      249        1
Mn      10.80000000      12.60000000       9.00000000      54.93804400      250        5
Ni      12.60000000      10.80000000       9.00000000      58.69340000      251        2
Mn      12.60000000      12.60000000       7.20000000      54.93804400      252        5
Fe      10.80000000      10.80000000      10.80000000      55.84500000      253        4
Co      10.80000000      12.60000000      12.60000000      58.93319400      254        1
Ni      12.60000000      10.80000000      12.60000000      58.69340000      255        2
Mn      12.60000000      12.60000000      10.80000000      54.93804400      256        5
