256
Lattice="14.4 0.0 0.0 0.0 14.4 0.0 0.0 0.0 14.4" Properties=species:S:1:pos:R:3:masses:R:1:id:I:1:type:I:1 comment="(written by ASE)" energy=-1026.52420699791 pbc="T T T"
Co       0.00000000       0.00000000       0.00000000      58.93319400        1        1
Ni       0.00000000       1.80000000       1.80000000      58.69340000        2        2
Co       1.80000000       0.00000000       1.80000000      58.93319400        3        1
Mn       1.80000000       1.80000000       0.00000000      54.93804400        4        5
Fe       0.00000000       0.00000000       3.60000000      55.84500000        5        4
Ni       0.00000000       1.80000000       5.40000000      58.69340000        6        2
Mn       1.80000000       0.00000000       5.40000000      54.93804400        7        5
Co       1.80000000       1.80000000       3.60000000      58.93319400        8        1
Fe       0.00000000       0.00000000       7.20000000      55.84500000        9        4
Co       0.00000000       1.80000000       9.00000000      58.93319400       10        1
Cr       1.80000000       0.00000000       9.00000000      51.99610000       11        3
Mn       1.80000000       1.80000000       7.20000000      54.93804400       12        5
Mn       0.00000000       0.00000000      10.80000000      54.93804400       13        5
Ni       0.00000000       1.80000000      12.60000000      58.69340000       14        2
Mn       1.80000000       0.00000000      12.60000000      54.93804400       15        5
Fe       1.80000000       1.80000000      10.80000000      55.84500000       16        4
Fe       0.00000000       3.60000000       0.00000000      55.84500000       17        4
Co       0.00000000       5.40000000       1.80000000      58.93319400       18        1
Cr       1.80000000       3.60000000       1.80000000      51.99610000       19        3
Mn       1.80000000       5.40000000       0.00000000      54.93804400       20        5
Fe       0.00000000       3.60000000       3.60000000      55.84500000       21        4
Ni       0.00000000       5.40000000       5.40000000      58.69340000       22        2
Co       1.80000000       3.60000000       5.40000000      58.93319400       23        1
Cr       1.80000000       5.40000000       3.60000000      51.99610000       24        3
Fe       0.00000000       3.60000000       7.20000000      55.84500000       25        4
Fe       0.00000000       5.40000000       9.00000000      55.84500000       26        4
Mn       1.80000000       3.60000000       9.00000000      54.93804400       27        5
Fe       1.80000000       5.40000000       7.20000000      55.84500000       28        4
Fe       0.00000000       3.60000000      10.80000000      55.84500000       29        4
Mn       0.00000000       5.40000000      12.60000000      54.93804400       30        5
Co       1.80000000       3.60000000      12.60000000      58.93319400       31        1
Ni       1.80000000       5.40000000      10.80000000      58.69340000       32        2
Mn       0.00000000       7.20000000       0.00000000      54.93804400       33        5
Fe       0.00000000       9.00000000       1.80000000      55.84500000       34        4
Mn       1.80000000       7.20000000       1.80000000      54.93804400       35        5
Fe       1.80000000       9.00000000       0.00000000      55.84500000       36        4
Co       0.00000000       7.20000000       3.60000000      58.93319400       37        1
Fe       0.00000000       9.00000000       5.40000000      55.84500000       38        4
Mn       1.80000000       7.20000000       5.40000000      54.93804400       39        5
Mn       1.80000000       9.00000000       3.60000000      54.93804400       40        5
Ni       0.00000000       7.20000000       7.20000000      58.69340000       41        2
Fe       0.00000000       9.00000000       9.00000000      55.84500000       42        4
Co       1.80000000       7.20000000       9.00000000      58.93319400       43        1
Fe       1.80000000       9.00000000       7.20000000      55.84500000       44        4
Ni       0.00000000       7.20000000      10.80000000      58.69340000       45        2
Fe       0.00000000       9.00000000      12.60000000      55.84500000       46        4
Co       1.80000000       7.20000000      12.60000000      58.93319400       47        1
Mn       1.80000000       9.00000000      10.80000000      54.93804400       48        5
Ni       0.00000000      10.80000000       0.00000000      58.69340000       49        2
Co       0.00000000      12.60000000       1.80000000      58.93319400       50        1
Mn       1.80000000      10.80000000       1.80000000      54.93804400       51        5
Mn       1.80000000      12.60000000       0.00000000      54.93804400       52        5
Co       0.00000000      10.80000000       3.60000000      58.93319400       53        1
Co       0.00000000      12.60000000       5.40000000      58.93319400       54        1
Mn       1.80000000      10.80000000       5.40000000      54.93804400       55        5
Mn       1.80000000      12.60000000       3.60000000      54.93804400       56        5
Ni       0.00000000      10.80000000       7.20000000      58.69340000       57        2
Fe       0.00000000      12.60000000       9.00000000      55.84500000       58        4
Cr       1.80000000      10.80000000       9.00000000      51.99610000       59        3
Mn       1.80000000      12.60000000       7.20000000      54.93804400       60        5
Mn       0.00000000      10.80000000      10.80000000      54.93804400       61        5
Mn       0.00000000      12.60000000      12.60000000      54.93804400       62        5
Co       1.80000000      10.80000000      12.60000000      58.93319400       63        1
Cr       1.80000000      12.60000000      10.80000000      51.99610000       64        3
Cr       3.60000000       0.00000000       0.00000000      51.99610000       65        3
Cr       3.60000000       1.80000000       1.80000000      51.99610000       66        3
Cr       5.40000000       0.00000000       1.80000000      51.99610000       67        3
Cr       5.40000000       1.80000000       0.00000000      51.99610000       68        3
Mn       3.60000000       0.00000000       3.60000000      54.93804400       69        5
Cr       3.60000000       1.80000000       5.40000000      51.99610000       70        3
Cr       5.40000000       0.00000000       5.40000000      51.99610000       71        3
Cr       5.40000000       1.80000000       3.60000000      51.99610000       72        3
Cr       3.60000000       0.00000000       7.20000000      51.99610000       73        3
Cr       3.60000000       1.80000000       9.00000000      51.99610000       74        3
Cr       5.40000000       0.00000000       9.00000000      51.99610000       75        3
Cr       5.40000000       1.80000000       7.20000000      51.99610000       76        3
Cr       3.60000000       0.00000000      10.80000000      51.99610000       77        3
Mn       3.60000000       1.80000000      12.60000000      54.93804400       78        5
Cr       5.40000000       0.00000000      12.60000000      51.99610000       79        3
Mn       5.40000000       1.80000000      10.80000000      54.93804400       80        5
Cr       3.60000000       3.60000000       0.00000000      51.99610000       81        3
Cr       3.60000000       5.40000000       1.80000000      51.99610000       82        3
Cr       5.40000000       3.60000000       1.80000000      51.99610000       83        3
Ni       5.40000000       5.40000000       0.00000000      58.69340000       84        2
Cr       3.60000000       3.60000000       3.60000000      51.99610000       85        3
Cr       3.60000000       5.40000000       5.40000000      51.99610000       86        3
Cr       5.40000000       3.60000000       5.40000000      51.99610000       87        3
Cr       5.40000000       5.40000000       3.60000000      51.99610000       88        3
Mn       3.60000000       3.60000000       7.20000000      54.93804400       89        5
Mn       3.60000000       5.40000000       9.00000000      54.93804400       90        5
Co       5.40000000       3.60000000       9.00000000      58.93319400       91        1
Mn       5.40000000       5.40000000       7.20000000      54.93804400       92        5
Fe       3.60000000       3.60000000      10.80000000      55.84500000       93        4
Ni       3.60000000       5.40000000      12.60000000      58.69340000       94        2
Fe       5.40000000       3.60000000      12.60000000      55.84500000       95        4
Ni       5.40000000       5.40000000      10.80000000      58.69340000       96        2
Co       3.60000000       7.20000000       0.00000000      58.93319400       97        1
Mn       3.60000000       9.00000000       1.80000000      54.93804400       98        5
Mn       5.40000000       7.20000000       1.80000000      54.93804400       99        5
Mn       5.40000000       9.00000000       0.00000000      54.93804400      100        5
Cr       3.60000000       7.20000000       3.60000000      51.99610000      101        3
Mn       3.60000000       9.00000000       5.40000000      54.93804400      102        5
Cr       5.40000000       7.20000000       5.40000000      51.99610000      103        3
Mn       5.40000000       9.00000000       3.60000000      54.93804400      104        5
Mn       3.60000000       7.20000000       7.20000000      54.93804400      105        5
Mn       3.60000000       9.00000000       9.00000000      54.93804400      106        5
Co       5.40000000       7.20000000       9.00000000      58.93319400      107        1
Co       5.40000000       9.00000000       7.20000000      58.93319400      108        1
Fe       3.60000000       7.20000000      10.80000000      55.84500000      109        4
Mn       3.60000000       9.00000000      12.60000000      54.93804400      110        5
Fe       5.40000000       7.20000000      12.60000000      55.84500000      111        4
Mn       5.40000000       9.00000000      10.80000000      54.93804400      112        5
Mn       3.60000000      10.80000000       0.00000000      54.93804400      113        5
Mn       3.60000000      12.60000000       1.80000000      54.93804400      114        5
Mn       5.40000000      10.80000000       1.80000000      54.93804400      115        5
Cr       5.40000000      12.60000000       0.00000000      51.99610000      116        3
Co       3.60000000      10.80000000       3.60000000      58.93319400      117        1
Cr       3.60000000      12.60000000       5.40000000      51.99610000      118        3
Fe       5.40000000      10.80000000       5.40000000      55.84500000      119        4
Mn       5.40000000      12.60000000       3.60000000      54.93804400      120        5
Cr       3.60000000      10.80000000       7.20000000      51.99610000      121        3
Cr       3.60000000      12.60000000       9.00000000      51.99610000      122        3
Mn       5.40000000      10.80000000       9.00000000      54.93804400      123        5
Cr       5.40000000      12.60000000       7.20000000      51.99610000      124        3
Mn       3.60000000      10.80000000      10.80000000      54.93804400      125        5
Cr       3.60000000      12.60000000      12.60000000      51.99610000      126        3
Fe       5.40000000      10.80000000      12.60000000      55.84500000      127        4
Cr       5.40000000      12.60000000      10.80000000      51.99610000      128        3
Cr       7.20000000       0.00000000       0.00000000      51.99610000      129        3
Cr       7.20000000       1.80000000       1.80000000      51.99610000      130        3
Fe       9.00000000       0.00000000       1.80000000      55.84500000      131        4
Mn       9.00000000       1.80000000       0.00000000      54.93804400      132        5
Mn       7.20000000       0.00000000       3.60000000      54.93804400      133        5
Cr       7.20000000       1.80000000       5.40000000      51.99610000      134        3
Fe       9.00000000       0.00000000       5.40000000      55.84500000      135        4
Cr       9.00000000       1.80000000       3.60000000      51.99610000      136        3
Cr       7.20000000       0.00000000       7.20000000      51.99610000      137        3
Mn       7.20000000       1.80000000       9.00000000      54.93804400      138        5
Co       9.00000000       0.00000000       9.00000000      58.93319400      139        1
Mn       9.00000000       1.80000000       7.20000000      54.93804400      140        5
Cr       7.20000000       0.00000000      10.80000000      51.99610000      141        3
Cr       7.20000000       1.80000000      12.60000000      51.99610000      142        3
Mn       9.00000000       0.00000000      12.60000000      54.93804400      143        5
Co       9.00000000       1.80000000      10.80000000      58.93319400      144        1
Co       7.20000000       3.60000000       0.00000000      58.93319400      145        1
Fe       7.20000000       5.40000000       1.80000000      55.84500000      146        4
Cr       9.00000000       3.60000000       1.80000000      51.99610000      147        3
Fe       9.00000000       5.40000000       0.00000000      55.84500000      148        4
Cr       7.20000000       3.60000000       3.60000000      51.99610000      149        3
Cr       7.20000000       5.40000000       5.40000000      51.99610000      150        3
Cr       9.00000000       3.60000000       5.40000000      51.99610000      151        3
Cr       9.00000000       5.40000000       3.60000000      51.99610000      152        3
Mn       7.20000000       3.60000000       7.20000000      54.93804400      153        5
Fe       7.20000000       5.40000000       9.00000000      55.84500000      154        4
Mn       9.00000000       3.60000000       9.00000000      54.93804400      155        5
Co       9.00000000       5.40000000       7.20000000      58.93319400      156        1
Fe       7.20000000       3.60000000      10.80000000      55.84500000      157        4
Ni       7.20000000       5.40000000      12.60000000      58.69340000      158        2
Mn       9.00000000       3.60000000      12.60000000      54.93804400      159        5
Co       9.00000000       5.40000000      10.80000000      58.93319400      160        1
Ni       7.20000000       7.20000000       0.00000000      58.69340000      161        2
Fe       7.20000000       9.00000000       1.80000000      55.84500000      162        4
Co       9.00000000       7.20000000       1.80000000      58.93319400      163        1
Fe       9.00000000       9.00000000       0.00000000      55.84500000      164        4
Mn       7.20000000       7.20000000       3.60000000      54.93804400      165        5
Co       7.20000000       9.00000000       5.40000000      58.93319400      166        1
Fe       9.00000000       7.20000000       5.40000000      55.84500000      167        4
Ni       9.00000000       9.00000000       3.60000000      58.69340000      168        2
Ni       7.20000000       7.20000000       7.20000000      58.69340000      169        2
Fe       7.20000000       9.00000000       9.00000000      55.84500000      170        4
Ni       9.00000000       7.20000000       9.00000000      58.69340000      171        2
Co       9.00000000       9.00000000       7.20000000      58.93319400      172        1
Ni       7.20000000       7.20000000      10.80000000      58.69340000      173        2
Co       7.20000000       9.00000000      12.60000000      58.93319400      174        1
Co       9.00000000       7.20000000      12.60000000      58.93319400      175        1
Ni       9.00000000       9.00000000      10.80000000      58.69340000      176        2
Ni       7.20000000      10.80000000       0.00000000      58.69340000      177        2
Co       7.20000000      12.60000000       1.80000000      58.93319400      178        1
Ni       9.00000000      10.80000000       1.80000000      58.69340000      179        2
Ni       9.00000000      12.60000000       0.00000000      58.69340000      180        2
Co       7.20000000      10.80000000       3.60000000      58.93319400      181        1
Co       7.20000000      12.60000000       5.40000000      58.93319400      182        1
Fe       9.00000000      10.80000000       5.40000000      55.84500000      183        4
Ni       9.00000000      12.60000000       3.60000000      58.69340000      184        2
Mn       7.20000000      10.80000000       7.20000000      54.93804400      185        5
Fe       7.20000000      12.60000000       9.00000000      55.84500000      186        4
Co       9.00000000      10.80000000       9.00000000      58.93319400      187        1
Ni       9.00000000      12.60000000       7.20000000      58.69340000      188        2
Ni       7.20000000      10.80000000      10.80000000      58.69340000      189        2
Fe       7.20000000      12.60000000      12.60000000      55.84500000      190        4
Fe       9.00000000      10.80000000      12.60000000      55.84500000      191        4
Mn       9.00000000      12.60000000      10.80000000      54.93804400      192        5
Co      10.80000000       0.00000000       0.00000000      58.93319400      193        1
Fe      10.80000000       1.80000000       1.80000000      55.84500000      194        4
Ni      12.60000000       0.00000000       1.80000000      58.69340000      195        2
Ni      12.60000000       1.80000000       0.00000000      58.69340000      196        2
Co      10.80000000       0.00000000       3.60000000      58.93319400      197        1
Fe      10.80000000       1.80000000       5.40000000      55.84500000      198        4
Ni      12.60000000       0.00000000       5.40000000      58.69340000      199        2
Ni      12.60000000       1.80000000       3.60000000      58.69340000      200        2
Co      10.80000000       0.00000000       7.20000000      58.93319400      201        1
Fe      10.80000000       1.80000000       9.00000000      55.84500000      202        4
Ni      12.60000000       0.00000000       9.00000000      58.69340000      203        2
Ni      12.60000000       1.80000000       7.20000000      58.69340000      204        2
Mn      10.80000000       0.00000000      10.80000000      54.93804400      205        5
Fe      10.80000000       1.80000000      12.60000000      55.84500000      206        4
Fe      12.60000000       0.00000000      12.60000000      55.84500000      207        4
Ni      12.60000000       1.80000000      10.80000000      58.69340000      208        2
Mn      10.80000000       3.60000000       0.00000000      54.93804400      209        5
Mn      10.80000000       5.40000000       1.80000000      54.93804400      210        5
Co      12.60000000       3.60000000       1.80000000      58.93319400      211        1
Mn      12.60000000       5.40000000       0.00000000      54.93804400      212        5
Cr      10.80000000       3.60000000       3.60000000      51.99610000      213        3
Mn      10.80000000       5.40000000       5.40000000      54.93804400      214        5
Co      12.60000000       3.60000000       5.40000000      58.93319400      215        1
Mn      12.60000000       5.40000000       3.60000000      54.93804400      216        5
Ni      10.80000000       3.60000000       7.20000000      58.69340000      217        2
Fe      10.80000000       5.40000000       9.00000000      55.84500000      218        4
Ni      12.60000000       3.60000000       9.00000000      58.69340000      219        2
Co      12.60000000       5.40000000       7.20000000      58.93319400      220        1
Mn      10.80000000       3.60000000      10.80000000      54.93804400      221        5
Mn      10.80000000       5.40000000      12.60000000      54.93804400      222        5
Co      12.60000000       3.60000000      12.60000000      58.93319400      223        1
Co      12.60000000       5.40000000      10.80000000      58.93319400      224        1
Mn      10.80000000       7.20000000       0.00000000      54.93804400      225        5
Fe      10.80000000       9.00000000       1.80000000      55.84500000      226        4
Fe      12.60000000       7.20000000       1.80000000      55.84500000      227        4
Co      12.60000000       9.00000000       0.00000000      58.93319400      228        1
Co      10.80000000       7.20000000       3.60000000      58.93319400      229        1
Ni      10.80000000       9.00000000       5.40000000      58.69340000      230        2
Fe      12.60000000       7.20000000       5.40000000      55.84500000      231        4
Ni      12.60000000       9.00000000       3.60000000      58.69340000      232        2
Fe      10.80000000       7.20000000       7.20000000      55.84500000      233        4
Co      10.80000000       9.00000000       9.00000000      58.93319400      234        1
Ni      12.60000000       7.20000000       9.00000000      58.69340000      235        2
Ni      12.60000000       9.00000000       7.20000000      58.69340000      236        2
Fe      10.80000000       7.20000000      10.80000000      55.84500000      237        4
Ni      10.80000000       9.00000000      12.60000000      58.69340000      238        2
Co      12.60000000       7.20000000      12.60000000      58.93319400      239        1
Ni      12.60000000       9.00000000      10.80000000      58.69340000      240        2
Ni      10.80000000      10.80000000       0.00000000      58.69340000      241        2
Fe      10.80000000      12.60000000       1.80000000      55.84500000      242        4
Ni      12.60000000      10.80000000       1.80000000      58.69340000      243        2
Fe      12.60000000      12.60000000       0.00000000      55.84500000      244        4
Co      10.80000000      10.80000000       3.60000000      58.93319400      245        1
Fe      10.80000000      12.60000000       5.40000000      55.84500000      246        4
Fe      12.60000000      10.80000000       5.40000000      55.84500000      247        4
Ni      12.60000000      12.60000000       3.60000000      58.69340000      248        2
Ni      10.80000000      10.80000000       7.20000000      58.69340000      249        2
Fe      10.80000000      12.60000000       9.00000000      55.84500000      250        4
Fe      12.60000000      10.80000000       9.00000000      55.84500000      251        4
Ni      12.60000000      12.60000000       7.20000000      58.69340000      252        2
Ni      10.80000000      10.80000000      10.80000000      58.69340000      253        2
Co      10.80000000      12.60000000      12.60000000      58.93319400      254        1
Co      12.60000000      10.80000000      12.60000000      58.93319400      255        1
Co      12.60000000      12.60000000      10.80000000      58.93319400      256        1
