256
Lattice="14.4 0.0 0.0 0.0 14.4 0.0 0.0 0.0 14.4" Properties=species:S:1:pos:R:3:masses:R:1:id:I:1:type:I:1 comment="(written by ASE)" energy=-1025.11474300135 pbc="T T T"
Mn       0.00000000       0.00000000       0.00000000      54.93804400        1        5
Mn       0.00000000       1.80000000       1.80000000      54.93804400        2        5
Mn       1.80000000       0.00000000       1.80000000      54.93804400        3        5
Mn       1.80000000       1.80000000       0.00000000      54.93804400        4        5
Ni       0.00000000       0.00000000       3.60000000      58.69340000        5        2
Mn       0.00000000       1.80000000       5.40000000      54.93804400        6        5
Mn       1.80000000       0.00000000       5.40000000      54.93804400        7        5
Mn       1.80000000       1.80000000       3.60000000      54.93804400        8        5
Mn       0.00000000       0.00000000       7.20000000      54.93804400        9        5
Mn       0.00000000       1.80000000       9.00000000      54.93804400       10        5
Cr       1.80000000       0.00000000       9.00000000      51.99610000       11        3
Mn       1.80000000       1.80000000       7.20000000      54.93804400       12        5
Cr       0.00000000       0.00000000      10.80000000      51.99610000       13        3
Mn       0.00000000       1.80000000      12.60000000      54.93804400       14        5
Cr       1.80000000       0.00000000      12.60000000      51.99610000       15        3
Cr       1.80000000       1.80000000      10.80000000      51.99610000       16        3
Mn       0.00000000       3.60000000       0.00000000      54.93804400       17        5
Co       0.00000000       5.40000000       1.80000000      58.93319400       18        1
Co       1.80000000       3.60000000       1.80000000      58.93319400       19        1
Ni       1.80000000       5.40000000       0.00000000      58.69340000       20        2
Ni       0.00000000       3.60000000       3.60000000      58.69340000       21        2
Cr       0.00000000       5.40000000       5.40000000      51.99610000       22        3
Co       1.80000000       3.60000000       5.40000000      58.93319400       23        1
Cr       1.80000000       5.40000000       3.60000000      51.99610000       24        3
Mn       0.00000000       3.60000000       7.20000000      54.93804400       25        5
Mn       0.00000000       5.40000000       9.00000000      54.93804400       26        5
Co       1.80000000       3.60000000       9.00000000      58.93319400       27        1
Cr       1.80000000       5.40000000       7.20000000      51.99610000       28        3
Mn       0.00000000       3.60000000      10.80000000      54.93804400       29        5
Fe       0.00000000       5.40000000      12.60000000      55.84500000       30        4
Mn       1.80000000       3.60000000      12.60000000      54.93804400       31        5
Mn       1.80000000       5.40000000      10.80000000      54.93804400       32        5
Fe       0.00000000       7.20000000       0.00000000      55.84500000       33        4
Ni       0.00000000       9.00000000       1.80000000      58.69340000       34        2
Co       1.80000000       7.20000000       1.80000000      58.93319400       35        1
Ni       1.80000000       9.00000000       0.00000000      58.69340000       36        2
Cr       0.00000000       7.20000000       3.60000000      51.99610000       37        3
Ni       0.00000000       9.00000000       5.40000000      58.69340000       38        2
Cr       1.80000000       7.20000000       5.40000000      51.99610000       39        3
Co       1.80000000       9.00000000       3.60000000      58.93319400       40        1
Ni       0.00000000       7.20000000       7.20000000      58.69340000       41        2
Co       0.00000000       9.00000000       9.00000000      58.93319400       42        1
Cr       1.80000000       7.20000000       9.00000000      51.99610000       43        3
Cr       1.80000000       9.00000000       7.20000000      51.99610000       44        3
Ni       0.00000000       7.20000000      10.80000000      58.69340000       45        2
Fe       0.00000000       9.00000000      12.60000000      55.84500000       46        4
Fe       1.80000000       7.20000000      12.60000000      55.84500000       47        4
Fe       1.80000000       9.00000000      10.80000000      55.84500000       48        4
Co       0.00000000      10.80000000       0.00000000      58.93319400       49        1
Mn       0.00000000      12.60000000       1.80000000      54.93804400       50        5
Mn       1.80000000      10.80000000       1.80000000      54.93804400       51        5
Cr       1.80000000      12.60000000       0.00000000      51.99610000       52        3
Mn       0.00000000      10.80000000       3.60000000      54.93804400       53        5
Mn       0.00000000      12.60000000       5.40000000      54.93804400       54        5
Mn       1.80000000      10.80000000       5.40000000      54.93804400       55        5
Co       1.80000000      12.60000000       3.60000000      58.93319400       56        1
Mn       0.00000000      10.80000000       7.20000000      54.93804400       57        5
Co       0.00000000      12.60000000       9.00000000      58.93319400       58        1
Ni       1.80000000      10.80000000       9.00000000      58.69340000       59        2
Mn       1.80000000      12.60000000       7.20000000      54.93804400       60        5
Co       0.00000000      10.80000000      10.80000000      58.93319400       61        1
Ni       0.00000000      12.60000000      12.60000000      58.69340000       62        2
Co       1.80000000      10.80000000      12.60000000      58.93319400       63        1
Ni       1.80000000      12.60000000      10.80000000      58.69340000       64        2
Cr       3.60000000       0.00000000       0.00000000      51.99610000       65        3
Cr       3.60000000       1.80000000       1.80000000      51.99610000       66        3
Cr       5.40000000       0.00000000       1.80000000      51.99610000       67        3
Cr       5.40000000       1.80000000       0.00000000      51.99610000       68        3
Cr       3.60000000       0.00000000       3.60000000      51.99610000       69        3
Cr       3.60000000       1.80000000       5.40000000      51.99610000       70        3
Co       5.40000000       0.00000000       5.40000000      58.93319400       71        1
Cr       5.40000000       1.80000000       3.60000000      51.99610000       72        3
Ni       3.60000000       0.00000000       7.20000000      58.69340000       73        2
Ni       3.60000000       1.80000000       9.00000000      58.69340000       74        2
Fe       5.40000000       0.00000000       9.00000000      55.84500000       75        4
Fe       5.40000000       1.80000000       7.20000000      55.84500000       76        4
Cr       3.60000000       0.00000000      10.80000000      51.99610000       77        3
Cr       3.60000000       1.80000000      12.60000000      51.99610000       78        3
Cr       5.40000000       0.00000000      12.60000000      51.99610000       79        3
Co       5.40000000       1.80000000      10.80000000      58.93319400       80        1
Co       3.60000000       3.60000000       0.00000000      58.93319400       81        1
Ni       3.60000000       5.40000000       1.80000000      58.69340000       82        2
Cr       5.40000000       3.60000000       1.80000000      51.99610000       83        3
Mn       5.40000000       5.40000000       0.00000000      54.93804400       84        5
Cr       3.60000000       3.60000000       3.60000000      51.99610000       85        3
Cr       3.60000000       5.40000000       5.40000000      51.99610000       86        3
Cr       5.40000000       3.60000000       5.40000000      51.99610000       87        3
Cr       5.40000000       5.40000000       3.60000000      51.99610000       88        3
Cr       3.60000000       3.60000000       7.20000000      51.99610000       89        3
Ni       3.60000000       5.40000000       9.00000000      58.69340000       90        2
Fe       5.40000000       3.60000000       9.00000000      55.84500000       91        4
Co       5.40000000       5.40000000       7.20000000      58.93319400       92        1
Co       3.60000000       3.60000000      10.80000000      58.93319400       93        1
Mn       3.60000000       5.40000000      12.60000000      54.93804400       94        5
Ni       5.40000000       3.60000000      12.60000000      58.69340000       95        2
Fe       5.40000000       5.40000000      10.80000000      55.84500000       96        4
Co       3.60000000       7.20000000       0.00000000      58.93319400       97        1
Ni       3.60000000       9.00000000       1.80000000      58.69340000       98        2
Cr       5.40000000       7.20000000       1.80000000      51.99610000       99        3
Mn       5.40000000       9.00000000       0.00000000      54.93804400      100        5
Cr       3.60000000       7.20000000       3.60000000      51.99610000      101        3
Cr       3.60000000       9.00000000       5.40000000      51.99610000      102        3
Cr       5.40000000       7.20000000       5.40000000      51.99610000      103        3
Cr       5.40000000       9.00000000       3.60000000      51.99610000      104        3
Cr       3.60000000       7.20000000       7.20000000      51.99610000      105        3
Co       3.60000000       9.00000000       9.00000000      58.93319400      106        1
Co       5.40000000       7.20000000       9.00000000      58.93319400      107        1
Mn       5.40000000       9.00000000       7.20000000      54.93804400      108        5
Ni       3.60000000       7.20000000      10.80000000      58.69340000      109        2
Ni       3.60000000       9.00000000      12.60000000      58.69340000      110        2
Fe       5.40000000       7.20000000      12.60000000      55.84500000      111        4
Co       5.40000000       9.00000000      10.80000000      58.93319400      112        1
Co       3.60000000      10.80000000       0.00000000      58.93319400      113        1
Cr       3.60000000      12.60000000       1.80000000      51.99610000      114        3
Cr       5.40000000      10.80000000       1.80000000      51.99610000      115        3
Cr       5.40000000      12.60000000       0.00000000      51.99610000      116        3
Co       3.60000000      10.80000000       3.60000000      58.93319400      117        1
Ni       3.60000000      12.60000000       5.40000000      58.69340000      118        2
Ni       5.40000000      10.80000000       5.40000000      58.69340000      119        2
Ni       5.40000000      12.60000000       3.60000000      58.69340000      120        2
Co       3.60000000      10.80000000       7.20000000      58.93319400      121        1
Co       3.60000000      12.60000000       9.00000000      58.93319400      122        1
Ni       5.40000000      10.80000000       9.00000000      58.69340000      123        2
Fe       5.40000000      12.60000000       7.20000000      55.84500000      124        4
Co       3.60000000      10.80000000      10.80000000      58.93319400      125        1
Cr       3.60000000      12.60000000      12.60000000      51.99610000      126        3
Cr       5.40000000      10.80000000      12.60000000      51.99610000      127        3
Co       5.40000000      12.60000000      10.80000000      58.93319400      128        1
Cr       7.20000000       0.00000000       0.00000000      51.99610000      129        3
Cr       7.20000000       1.80000000       1.80000000      51.99610000      130        3
Co       9.00000000       0.00000000       1.80000000      58.93319400      131        1
Ni       9.00000000       1.80000000       0.00000000      58.69340000      132        2
Mn       7.20000000       0.00000000       3.60000000      54.93804400      133        5
Ni       7.20000000       1.80000000       5.40000000      58.69340000      134        2
Mn       9.00000000       0.00000000       5.40000000      54.93804400      135        5
Co       9.00000000       1.80000000       3.60000000      58.93319400      136        1
Fe       7.20000000       0.00000000       7.20000000      55.84500000      137        4
Fe       7.20000000       1.80000000       9.00000000      55.84500000      138        4
Fe       9.00000000       0.00000000       9.00000000      55.84500000      139        4
Co       9.00000000       1.80000000       7.20000000      58.93319400      140        1
Ni       7.20000000       0.00000000      10.80000000      58.69340000      141        2
Co       7.20000000       1.80000000      12.60000000      58.93319400      142        1
Mn       9.00000000       0.00000000      12.60000000      54.93804400      143        5
Mn       9.00000000       1.80000000      10.80000000      54.93804400      144        5
Co       7.20000000       3.60000000       0.00000000      58.93319400      145        1
Cr       7.20000000       5.40000000       1.80000000      51.99610000      146        3
Mn       9.00000000       3.60000000       1.80000000      54.93804400      147        5
Fe       9.00000000       5.40000000       0.00000000      55.84500000      148        4
Cr       7.20000000       3.60000000       3.60000000      51.99610000      149        3
Cr       7.20000000       5.40000000       5.40000000      51.99610000      150        3
Cr       9.00000000       3.60000000       5.40000000      51.99610000      151        3
Cr       9.00000000       5.40000000       3.60000000      51.99610000      152        3
Fe       7.20000000       3.60000000       7.20000000      55.84500000      153        4
Fe       7.20000000       5.40000000       9.00000000      55.84500000      154        4
Ni       9.00000000       3.60000000       9.00000000      58.69340000      155        2
Ni       9.00000000       5.40000000       7.20000000      58.69340000      156        2
Fe       7.20000000       3.60000000      10.80000000      55.84500000      157        4
Fe       7.20000000       5.40000000      12.60000000      55.84500000      158        4
Ni       9.00000000       3.60000000      12.60000000      58.69340000      159        2
Fe       9.00000000       5.40000000      10.80000000      55.84500000      160        4
Co       7.20000000       7.20000000       0.00000000      58.93319400      161        1
Ni       7.20000000       9.00000000       1.80000000      58.69340000      162        2
Co       9.00000000       7.20000000       1.80000000      58.93319400      163        1
Fe       9.00000000       9.00000000       0.00000000      55.84500000      164        4
Cr       7.20000000       7.20000000       3.60000000      51.99610000      165        3
Fe       7.20000000       9.00000000       5.40000000      55.84500000      166        4
Co       9.00000000       7.20000000       5.40000000      58.93319400      167        1
Fe       9.00000000       9.00000000       3.60000000      55.84500000      168        4
Ni       7.20000000       7.20000000       7.20000000      58.69340000      169        2
Fe       7.20000000       9.00000000       9.00000000      55.84500000      170        4
Fe       9.00000000       7.20000000       9.00000000      55.84500000      171        4
Fe       9.00000000       9.00000000       7.20000000      55.84500000      172        4
Fe       7.20000000       7.20000000      10.80000000      55.84500000      173        4
Ni       7.20000000       9.00000000      12.60000000      58.69340000      174        2
Fe       9.00000000       7.20000000      12.60000000      55.84500000      175        4
Fe       9.00000000       9.00000000      10.80000000      55.84500000      176        4
Ni       7.20000000      10.80000000       0.00000000      58.69340000      177        2
Co       7.20000000      12.60000000       1.80000000      58.93319400      178        1
Fe       9.00000000      10.80000000       1.80000000      55.84500000      179        4
Mn       9.00000000      12.60000000       0.00000000      54.93804400      180        5
Fe       7.20000000      10.80000000       3.60000000      55.84500000      181        4
Fe       7.20000000      12.60000000       5.40000000      55.84500000      182        4
Fe       9.00000000      10.80000000       5.40000000      55.84500000      183        4
Ni       9.00000000      12.60000000       3.60000000      58.69340000      184        2
Fe       7.20000000      10.80000000       7.20000000      55.84500000      185        4
Fe       7.20000000      12.60000000       9.00000000      55.84500000      186        4
Fe       9.00000000      10.80000000       9.00000000      55.84500000      187        4
Fe       9.00000000      12.60000000       7.20000000      55.84500000      188        4
Fe       7.20000000      10.80000000      10.80000000      55.84500000      189        4
Co       7.20000000      12.60000000      12.60000000      58.93319400      190        1
Co       9.00000000      10.80000000      12.60000000      58.93319400      191        1
Fe       9.00000000      12.60000000      10.80000000      55.84500000      192        4
Mn      10.80000000       0.00000000       0.00000000      54.93804400      193        5
Mn      10.80000000       1.80000000       1.80000000      54.93804400      194        5
Mn      12.60000000       0.00000000       1.80000000      54.93804400      195        5
Ni      12.60000000       1.80000000       0.00000000      58.69340000      196        2
Mn      10.80000000       0.00000000       3.60000000      54.93804400      197        5
Ni      10.80000000       1.80000000       5.40000000      58.69340000      198        2
Mn      12.60000000       0.00000000       5.40000000      54.93804400      199        5
Mn      12.60000000       1.80000000       3.60000000      54.93804400      200        5
Mn      10.80000000       0.00000000       7.20000000      54.93804400      201        5
Mn      10.80000000       1.80000000       9.00000000      54.93804400      202        5
Co      12.60000000       0.00000000       9.00000000      58.93319400      203        1
Mn      12.60000000       1.80000000       7.20000000      54.93804400      204        5
Mn      10.80000000       0.00000000      10.80000000      54.93804400      205        5
Mn      10.80000000       1.80000000      12.60000000      54.93804400      206        5
Mn      12.60000000       0.00000000      12.60000000      54.93804400      207        5
Mn      12.60000000       1.80000000      10.80000000      54.93804400      208        5
Mn      10.80000000       3.60000000       0.00000000      54.93804400      209        5
Co      10.80000000       5.40000000       1.80000000      58.93319400      210        1
Mn      12.60000000       3.60000000       1.80000000      54.93804400      211        5
Ni      12.60000000       5.40000000       0.00000000      58.69340000      212        2
Ni      10.80000000       3.60000000       3.60000000      58.69340000      213        2
Mn      10.80000000       5.40000000       5.40000000      54.93804400      214        5
Co      12.60000000       3.60000000       5.40000000      58.93319400      215        1
Mn      12.60000000       5.40000000       3.60000000      54.93804400      216        5
Mn      10.80000000       3.60000000       7.20000000      54.93804400      217        5
Co      10.80000000       5.40000000       9.00000000      58.93319400      218        1
Ni      12.60000000       3.60000000       9.00000000      58.69340000      219        2
Mn      12.60000000       5.40000000       7.20000000      54.93804400      220        5
Mn      10.80000000       3.60000000      10.80000000      54.93804400      221        5
Fe      10.80000000       5.40000000      12.60000000      55.84500000      222        4
Mn      12.60000000       3.60000000      12.60000000      54.93804400      223        5
Mn      12.60000000       5.40000000      10.80000000      54.93804400      224        5
Fe      10.80000000       7.20000000       0.00000000      55.84500000      225        4
Fe      10.80000000       9.00000000       1.80000000      55.84500000      226        4
Co      12.60000000       7.20000000       1.80000000      58.93319400      227        1
Fe      12.60000000       9.00000000       0.00000000      55.84500000      228        4
Ni      10.80000000       7.20000000       3.60000000      58.69340000      229        2
Ni      10.80000000       9.00000000       5.40000000      58.69340000      230        2
Co      12.60000000       7.20000000       5.40000000      58.93319400      231        1
Co      12.60000000       9.00000000       3.60000000      58.93319400      232        1
Mn      10.80000000       7.20000000       7.20000000      54.93804400      233        5
Fe      10.80000000       9.00000000       9.00000000      55.84500000      234        4
Fe      12.60000000       7.20000000       9.00000000      55.84500000      235        4
Fe      12.60000000       9.00000000       7.20000000      55.84500000      236        4
Fe      10.80000000       7.20000000      10.80000000      55.84500000      237        4
Fe      10.80000000       9.00000000      12.60000000      55.84500000      238        4
Fe      12.60000000       7.20000000      12.60000000      55.84500000      239        4
Fe      12.60000000       9.00000000      10.80000000      55.84500000      240        4
Mn      10.80000000      10.80000000       0.00000000      54.93804400      241        5
Ni      10.80000000      12.60000000       1.80000000      58.69340000      242        2
Co      12.60000000      10.80000000       1.80000000      58.93319400      243        1
Mn      12.60000000      12.60000000       0.00000000      54.93804400      244        5
Fe      10.80000000      10.80000000       3.60000000      55.84500000      245        4
Ni      10.80000000      12.60000000       5.40000000      58.69340000      246        2
Co      12.60000000      10.80000000       5.40000000      58.93319400      247        1
Mn      12.60000000      12.60000000       3.60000000      54.93804400      248        5
Fe      10.80000000      10.80000000       7.20000000      55.84500000      249        4
Fe      10.80000000      12.60000000       9.00000000      55.84500000      250        4
Ni      12.60000000      10.80000000       9.00000000      58.69340000      251        2
Co      12.60000000      12.60000000       7.20000000      58.93319400      252        1
Ni      10.80000000      10.80000000      10.80000000      58.69340000      253        2
Ni      10.80000000      12.60000000      12.60000000      58.69340000      254        2
Mn      12.60000000      10.80000000      12.60000000      54.93804400      255        5
Co      12.60000000      12.60000000      10.80000000      58.93319400      256        1
