256
Lattice="14.4 0.0 0.0 0.0 14.4 0.0 0.0 0.0 14.4" Properties=species:S:1:pos:R:3:masses:R:1:id:I:1:type:I:1 comment="(written by ASE)" energy=-1030.2780148469 pbc="T T T"
Mn       0.00000000       0.00000000       0.00000000      54.93804400        1        5
Ni       0.00000000       1.80000000       1.80000000      58.69340000        2        2
Ni       1.80000000       0.00000000       1.80000000      58.69340000        3        2
Cr       1.80000000       1.80000000       0.00000000      51.99610000        4        3
Fe       0.00000000       0.00000000       3.60000000      55.84500000        5        4
Ni       0.00000000       1.80000000       5.40000000      58.69340000        6        2
Co       1.80000000       0.00000000       5.40000000      58.93319400        7        1
Mn       1.80000000       1.80000000       3.60000000      54.93804400        8        5
Fe       0.00000000       0.00000000       7.20000000      55.84500000        9        4
Fe       0.00000000       1.80000000       9.00000000      55.84500000       10        4
Mn       1.80000000       0.00000000       9.00000000      54.93804400       11        5
Co       1.80000000       1.80000000       7.20000000      58.93319400       12        1
Cr       0.00000000       0.00000000      10.80000000      51.99610000       13        3
Cr       0.00000000       1.80000000      12.60000000      51.99610000       14        3
Cr       1.80000000       0.00000000      12.60000000      51.99610000       15        3
Mn       1.80000000       1.80000000      10.80000000      54.93804400       16        5
Cr       0.00000000       3.60000000       0.00000000      51.99610000       17        3
Cr       0.00000000       5.40000000       1.80000000      51.99610000       18        3
Ni       1.80000000       3.60000000       1.80000000      58.69340000       19        2
Mn       1.80000000       5.40000000       0.00000000      54.93804400       20        5
Fe       0.00000000       3.60000000       3.60000000      55.84500000       21        4
Ni       0.00000000       5.40000000       5.40000000      58.69340000       22        2
Fe       1.80000000       3.60000000       5.40000000      55.84500000       23        4
Mn       1.80000000       5.40000000       3.60000000      54.93804400       24        5
Mn       0.00000000       3.60000000       7.20000000      54.93804400       25        5
Co       0.00000000       5.40000000       9.00000000      58.93319400       26        1
Ni       1.80000000       3.60000000       9.00000000      58.69340000       27        2
Fe       1.80000000       5.40000000       7.20000000      55.84500000       28        4
Ni       0.00000000       3.60000000      10.80000000      58.69340000       29        2
Ni       0.00000000       5.40000000      12.60000000      58.69340000       30        2
Mn       1.80000000       3.60000000      12.60000000      54.93804400       31        5
Fe       1.80000000       5.40000000      10.80000000      55.84500000       32        4
Fe       0.00000000       7.20000000       0.00000000      55.84500000       33        4
Cr       0.00000000       9.00000000       1.80000000      51.99610000       34        3
Ni       1.80000000       7.20000000       1.80000000      58.69340000       35        2
Ni       1.80000000       9.00000000       0.00000000      58.69340000       36        2
Fe       0.00000000       7.20000000       3.60000000      55.84500000       37        4
Ni       0.00000000       9.00000000       5.40000000      58.69340000       38        2
Ni       1.80000000       7.20000000       5.40000000      58.69340000       39        2
Mn       1.80000000       9.00000000       3.60000000      54.93804400       40        5
Mn       0.00000000       7.20000000       7.20000000      54.93804400       41        5
Co       0.00000000       9.00000000       9.00000000      58.93319400       42        1
Co       1.80000000       7.20000000       9.00000000      58.93319400       43        1
Fe       1.80000000       9.00000000       7.20000000      55.84500000       44        4
Co       0.00000000       7.20000000      10.80000000      58.93319400       45        1
Fe       0.00000000       9.00000000      12.60000000      55.84500000       46        4
Co       1.80000000       7.20000000      12.60000000      58.93319400       47        1
Co       1.80000000       9.00000000      10.80000000      58.93319400       48        1
Mn       0.00000000      10.80000000       0.00000000      54.93804400       49        5
Cr       0.00000000      12.60000000       1.80000000      51.99610000       50        3
Ni       1.80000000      10.80000000       1.80000000      58.69340000       51        2
Ni       1.80000000      12.60000000       0.00000000      58.69340000       52        2
Fe       0.00000000      10.80000000       3.60000000      55.84500000       53        4
Ni       0.00000000      12.60000000       5.40000000      58.69340000       54        2
Ni       1.80000000      10.80000000       5.40000000      58.69340000       55        2
Mn       1.80000000      12.60000000       3.60000000      54.93804400       56        5
Fe       0.00000000      10.80000000       7.20000000      55.84500000       57        4
Ni       0.00000000      12.60000000       9.00000000      58.69340000       58        2
Mn       1.80000000      10.80000000       9.00000000      54.93804400       59        5
Ni       1.80000000      12.60000000       7.20000000      58.69340000       60        2
Mn       0.00000000      10.80000000      10.80000000      54.93804400       61        5
Cr       0.00000000      12.60000000      12.60000000      51.99610000       62        3
Fe       1.80000000      10.80000000      12.60000000      55.84500000       63        4
Cr       1.80000000      12.60000000      10.80000000      51.99610000       64        3
Mn       3.60000000       0.00000000       0.00000000      54.93804400       65        5
Fe       3.60000000       1.80000000       1.80000000      55.84500000       66        4
Co       5.40000000       0.00000000       1.80000000      58.93319400       67        1
Ni       5.40000000       1.80000000       0.00000000      58.69340000       68        2
Co       3.60000000       0.00000000       3.60000000      58.93319400       69        1
Mn       3.60000000       1.80000000       5.40000000      54.93804400       70        5
Ni       5.40000000       0.00000000       5.40000000      58.69340000       71        2
Ni       5.40000000       1.80000000       3.60000000      58.69340000       72        2
Fe       3.60000000       0.00000000       7.20000000      55.84500000       73        4
Ni       3.60000000       1.80000000       9.00000000      58.69340000       74        2
Fe       5.40000000       0.00000000       9.00000000      55.84500000       75        4
Mn       5.40000000       1.80000000       7.20000000      54.93804400       76        5
Cr       3.60000000       0.00000000      10.80000000      51.99610000       77        3
Cr       3.60000000       1.80000000      12.60000000      51.99610000       78        3
Fe       5.40000000       0.00000000      12.60000000      55.84500000       79        4
Mn       5.40000000       1.80000000      10.80000000      54.93804400       80        5
Cr       3.60000000       3.60000000       0.00000000      51.99610000       81        3
Cr       3.60000000       5.40000000       1.80000000      51.99610000       82        3
Mn       5.40000000       3.60000000       1.80000000      54.93804400       83        5
Ni       5.40000000       5.40000000       0.00000000      58.69340000       84        2
Cr       3.60000000       3.60000000       3.60000000      51.99610000       85        3
Mn       3.60000000       5.40000000       5.40000000      54.93804400       86        5
Cr       5.40000000       3.60000000       5.40000000      51.99610000       87        3
Cr       5.40000000       5.40000000       3.60000000      51.99610000       88        3
Cr       3.60000000       3.60000000       7.20000000      51.99610000       89        3
Mn       3.60000000       5.40000000       9.00000000      54.93804400       90        5
Fe       5.40000000       3.60000000       9.00000000      55.84500000       91        4
Cr       5.40000000       5.40000000       7.20000000      51.99610000       92        3
Ni       3.60000000       3.60000000      10.80000000      58.69340000       93        2
Co       3.60000000       5.40000000      12.60000000      58.93319400       94        1
Fe       5.40000000       3.60000000      12.60000000      55.84500000       95        4
Co       5.40000000       5.40000000      10.80000000      58.93319400       96        1
Mn       3.60000000       7.20000000       0.00000000      54.93804400       97        5
Fe       3.60000000       9.00000000       1.80000000      55.84500000       98        4
Cr       5.40000000       7.20000000       1.80000000      51.99610000       99        3
Fe       5.40000000       9.00000000       0.00000000      55.84500000      100        4
Cr       3.60000000       7.20000000       3.60000000      51.99610000      101        3
Mn       3.60000000       9.00000000       5.40000000      54.93804400      102        5
Cr       5.40000000       7.20000000       5.40000000      51.99610000      103        3
Mn       5.40000000       9.00000000       3.60000000      54.93804400      104        5
Cr       3.60000000       7.20000000       7.20000000      51.99610000      105        3
Mn       3.60000000       9.00000000       9.00000000      54.93804400      106        5
Ni       5.40000000       7.20000000       9.00000000      58.69340000      107        2
Cr       5.40000000       9.00000000       7.20000000      51.99610000      108        3
Co       3.60000000       7.20000000      10.80000000      58.93319400      109        1
Mn       3.60000000       9.00000000      12.60000000      54.93804400      110        5
Fe       5.40000000       7.20000000      12.60000000      55.84500000      111        4
Mn       5.40000000       9.00000000      10.80000000      54.93804400      112        5
Fe       3.60000000      10.80000000       0.00000000      55.84500000      113        4
Fe       3.60000000      12.60000000       1.80000000      55.84500000      114        4
Co       5.40000000      10.80000000       1.80000000      58.93319400      115        1
Co       5.40000000      12.60000000       0.00000000      58.93319400      116        1
Ni       3.60000000      10.80000000       3.60000000      58.69340000      117        2
Fe       3.60000000      12.60000000       5.40000000      55.84500000      118        4
Ni       5.40000000      10.80000000       5.40000000      58.69340000      119        2
Ni       5.40000000      12.60000000       3.60000000      58.69340000      120        2
Cr       3.60000000      10.80000000       7.20000000      51.99610000      121        3
Ni       3.60000000      12.60000000       9.00000000      58.69340000      122        2
Fe       5.40000000      10.80000000       9.00000000      55.84500000      123        4
Mn       5.40000000      12.60000000       7.20000000      54.93804400      124        5
Ni       3.60000000      10.80000000      10.80000000      58.69340000      125        2
Mn       3.60000000      12.60000000      12.60000000      54.93804400      126        5
Co       5.40000000      10.80000000      12.60000000      58.93319400      127        1
Fe       5.40000000      12.60000000      10.80000000      55.84500000      128        4
Mn       7.20000000       0.00000000       0.00000000      54.93804400      129        5
Ni       7.20000000       1.80000000       1.80000000      58.69340000      130        2
Fe       9.00000000       0.00000000       1.80000000      55.84500000      131        4
Cr       9.00000000       1.80000000       0.00000000      51.99610000      132        3
Mn       7.20000000       0.00000000       3.60000000      54.93804400      133        5
Fe       7.20000000       1.80000000       5.40000000      55.84500000      134        4
Co       9.00000000       0.00000000       5.40000000      58.93319400      135        1
Ni       9.00000000       1.80000000       3.60000000      58.69340000      136        2
Co       7.20000000       0.00000000       7.20000000      58.93319400      137        1
Co       7.20000000       1.80000000       9.00000000      58.93319400      138        1
Fe       9.00000000       0.00000000       9.00000000      55.84500000      139        4
Mn       9.00000000       1.80000000       7.20000000      54.93804400      140        5
Co       7.20000000       0.00000000      10.80000000      58.93319400      141        1
Ni       7.20000000       1.80000000      12.60000000      58.69340000      142        2
Fe       9.00000000       0.00000000      12.60000000      55.84500000      143        4
Mn       9.00000000       1.80000000      10.80000000      54.93804400      144        5
Mn       7.20000000       3.60000000       0.00000000      54.93804400      145        5
Mn       7.20000000       5.40000000       1.80000000      54.93804400      146        5
Fe       9.00000000       3.60000000       1.80000000      55.84500000      147        4
Ni       9.00000000       5.40000000       0.00000000      58.69340000      148        2
Cr       7.20000000       3.60000000       3.60000000      51.99610000      149        3
Cr       7.20000000       5.40000000       5.40000000      51.99610000      150        3
Ni       9.00000000       3.60000000       5.40000000      58.69340000      151        2
Ni       9.00000000       5.40000000       3.60000000      58.69340000      152        2
Mn       7.20000000       3.60000000       7.20000000      54.93804400      153        5
Co       7.20000000       5.40000000       9.00000000      58.93319400      154        1
Co       9.00000000       3.60000000       9.00000000      58.93319400      155        1
Fe       9.00000000       5.40000000       7.20000000      55.84500000      156        4
Fe       7.20000000       3.60000000      10.80000000      55.84500000      157        4
Co       7.20000000       5.40000000      12.60000000      58.93319400      158        1
Cr       9.00000000       3.60000000      12.60000000      51.99610000      159        3
Mn       9.00000000       5.40000000      10.80000000      54.93804400      160        5
Mn       7.20000000       7.20000000       0.00000000      54.93804400      161        5
Ni       7.20000000       9.00000000       1.80000000      58.69340000      162        2
Fe       9.00000000       7.20000000       1.80000000      55.84500000      163        4
Co       9.00000000       9.00000000       0.00000000      58.93319400      164        1
Cr       7.20000000       7.20000000       3.60000000      51.99610000      165        3
Fe       7.20000000       9.00000000       5.40000000      55.84500000      166        4
Mn       9.00000000       7.20000000       5.40000000      54.93804400      167        5
Ni       9.00000000       9.00000000       3.60000000      58.69340000      168        2
Mn       7.20000000       7.20000000       7.20000000      54.93804400      169        5
Fe       7.20000000       9.00000000       9.00000000      55.84500000      170        4
Co       9.00000000       7.20000000       9.00000000      58.93319400      171        1
Co       9.00000000       9.00000000       7.20000000      58.93319400      172        1
Co       7.20000000       7.20000000      10.80000000      58.93319400      173        1
Co       7.20000000       9.00000000      12.60000000      58.93319400      174        1
Fe       9.00000000       7.20000000      12.60000000      55.84500000      175        4
Co       9.00000000       9.00000000      10.80000000      58.93319400      176        1
Mn       7.20000000      10.80000000       0.00000000      54.93804400      177        5
Co       7.20000000      12.60000000       1.80000000      58.93319400      178        1
Fe       9.00000000      10.80000000       1.80000000      55.84500000      179        4
Co       9.00000000      12.60000000       0.00000000      58.93319400      180        1
Mn       7.20000000      10.80000000       3.60000000      54.93804400      181        5
Fe       7.20000000      12.60000000       5.40000000      55.84500000      182        4
Ni       9.00000000      10.80000000       5.40000000      58.69340000      183        2
Fe       9.00000000      12.60000000       3.60000000      55.84500000      184        4
Mn       7.20000000      10.80000000       7.20000000      54.93804400      185        5
Co       7.20000000      12.60000000       9.00000000      58.93319400      186        1
Co       9.00000000      10.80000000       9.00000000      58.93319400      187        1
Co       9.00000000      12.60000000       7.20000000      58.93319400      188        1
Co       7.20000000      10.80000000      10.80000000      58.93319400      189        1
Co       7.20000000      12.60000000      12.60000000      58.93319400      190        1
Fe       9.00000000      10.80000000      12.60000000      55.84500000      191        4
Co       9.00000000      12.60000000      10.80000000      58.93319400      192        1
Cr      10.80000000       0.00000000       0.00000000      51.99610000      193        3
Mn      10.80000000       1.80000000       1.80000000      54.93804400      194        5
Cr      12.60000000       0.00000000       1.80000000      51.99610000      195        3
Cr      12.60000000       1.80000000       0.00000000      51.99610000      196        3
Cr      10.80000000       0.00000000       3.60000000      51.99610000      197        3
Mn      10.80000000       1.80000000       5.40000000      54.93804400      198        5
Fe      12.60000000       0.00000000       5.40000000      55.84500000      199        4
Mn      12.60000000       1.80000000       3.60000000      54.93804400      200        5
Co      10.80000000       0.00000000       7.20000000      58.93319400      201        1
Fe      10.80000000       1.80000000       9.00000000      55.84500000      202        4
Ni      12.60000000       0.00000000       9.00000000      58.69340000      203        2
Co      12.60000000       1.80000000       7.20000000      58.93319400      204        1
Ni      10.80000000       0.00000000      10.80000000      58.69340000      205        2
Cr      10.80000000       1.80000000      12.60000000      51.99610000      206        3
Cr      12.60000000       0.00000000      12.60000000      51.99610000      207        3
Mn      12.60000000       1.80000000      10.80000000      54.93804400      208        5
Mn      10.80000000       3.60000000       0.00000000      54.93804400      209        5
Cr      10.80000000       5.40000000       1.80000000      51.99610000      210        3
Cr      12.60000000       3.60000000       1.80000000      51.99610000      211        3
Cr      12.60000000       5.40000000       0.00000000      51.99610000      212        3
Fe      10.80000000       3.60000000       3.60000000      55.84500000      213        4
Co      10.80000000       5.40000000       5.40000000      58.93319400      214        1
Fe      12.60000000       3.60000000       5.40000000      55.84500000      215        4
Mn      12.60000000       5.40000000       3.60000000      54.93804400      216        5
Mn      10.80000000       3.60000000       7.20000000      54.93804400      217        5
Co      10.80000000       5.40000000       9.00000000      58.93319400      218        1
Co      12.60000000       3.60000000       9.00000000      58.93319400      219        1
Co      12.60000000       5.40000000       7.20000000      58.93319400      220        1
Ni      10.80000000       3.60000000      10.80000000      58.69340000      221        2
Cr      10.80000000       5.40000000      12.60000000      51.99610000      222        3
Cr      12.60000000       3.60000000      12.60000000      51.99610000      223        3
Fe      12.60000000       5.40000000      10.80000000      55.84500000      224        4
Mn      10.80000000       7.20000000       0.00000000      54.93804400      225        5
Fe      10.80000000       9.00000000       1.80000000      55.84500000      226        4
Cr      12.60000000       7.20000000       1.80000000      51.99610000      227        3
Ni      12.60000000       9.00000000       0.00000000      58.69340000      228        2
Ni      10.80000000       7.20000000       3.60000000      58.69340000      229        2
Fe      10.80000000       9.00000000       5.40000000      55.84500000      230        4
Co      12.60000000       7.20000000       5.40000000      58.93319400      231        1
Mn      12.60000000       9.00000000       3.60000000      54.93804400      232        5
Co      10.80000000       7.20000000       7.20000000      58.93319400      233        1
Mn      10.80000000       9.00000000       9.00000000      54.93804400      234        5
Co      12.60000000       7.20000000       9.00000000      58.93319400      235        1
Mn      12.60000000       9.00000000       7.20000000      54.93804400      236        5
Co      10.80000000       7.20000000      10.80000000      58.93319400      237        1
Co      10.80000000       9.00000000      12.60000000      58.93319400      238        1
Mn      12.60000000       7.20000000      12.60000000      54.93804400      239        5
Fe      12.60000000       9.00000000      10.80000000      55.84500000      240        4
Mn      10.80000000      10.80000000       0.00000000      54.93804400      241        5
Mn      10.80000000      12.60000000       1.80000000      54.93804400      242        5
Cr      12.60000000      10.80000000       1.80000000      51.99610000      243        3
Cr      12.60000000      12.60000000       0.00000000      51.99610000      244        3
Cr      10.80000000      10.80000000       3.60000000      51.99610000      245        3
Mn      10.80000000      12.60000000       5.40000000      54.93804400      246        5
Cr      12.60000000      10.80000000       5.40000000      51.99610000      247        3
Mn      12.60000000      12.60000000       3.60000000      54.93804400      248        5
Co      10.80000000      10.80000000       7.20000000      58.93319400      249        1
Mn      10.80000000      12.60000000       9.00000000      54.93804400      250        5
Ni      12.60000000      10.80000000       9.00000000      58.69340000      251        2
Fe      12.60000000      12.60000000       7.20000000      55.84500000      252        4
Fe      10.80000000      10.80000000      10.80000000      55.84500000      253        4
Mn      10.80000000      12.60000000      12.60000000      54.93804400      254        5
Ni      12.60000000      10.80000000      12.60000000      58.69340000      255        2
Cr      12.60000000      12.60000000      10.80000000      51.99610000      256        3
