256
Lattice="14.4 0.0 0.0 0.0 14.4 0.0 0.0 0.0 14.4" Properties=species:S:1:pos:R:3:masses:R:1:id:I:1:type:I:1 comment="(written by ASE)" energy=-1019.52767485907 pbc="T T T"
Mn       0.00000000       0.00000000       0.00000000      54.93804400        1        5
Cr       0.00000000       1.80000000       1.80000000      51.99610000        2        3
Fe       1.80000000       0.00000000       1.80000000      55.84500000        3        4
Fe       1.80000000       1.80000000       0.00000000      55.84500000        4        4
Mn       0.00000000       0.00000000       3.60000000      54.93804400        5        5
Co       0.00000000       1.80000000       5.40000000      58.93319400        6        1
Co       1.80000000       0.00000000       5.40000000      58.93319400        7        1
Ni       1.80000000       1.80000000       3.60000000      58.69340000        8        2
Fe       0.00000000       0.00000000       7.20000000      55.84500000        9        4
Cr       0.00000000       1.80000000       9.00000000      51.99610000       10        3
Ni       1.80000000       0.00000000       9.00000000      58.69340000       11        2
Ni       1.80000000       1.80000000       7.20000000      58.69340000       12        2
Ni       0.00000000       0.00000000      10.80000000      58.69340000       13        2
Cr       0.00000000       1.80000000      12.60000000      51.99610000       14        3
Cr       1.80000000       0.00000000      12.60000000      51.99610000       15        3
Fe       1.80000000       1.80000000      10.80000000      55.84500000       16        4
Mn       0.00000000       3.60000000       0.00000000      54.93804400       17        5
Co       0.00000000       5.40000000       1.80000000      58.93319400       18        1
Ni       1.80000000       3.60000000       1.80000000      58.69340000       19        2
Fe       1.80000000       5.40000000       0.00000000      55.84500000       20        4
Co       0.00000000       3.60000000       3.60000000      58.93319400       21        1
Ni       0.00000000       5.40000000       5.40000000      58.69340000       22        2
Co       1.80000000       3.60000000       5.40000000      58.93319400       23        1
Ni       1.80000000       5.40000000       3.60000000      58.69340000       24        2
Fe       0.00000000       3.60000000       7.20000000      55.84500000       25        4
Mn       0.00000000       5.40000000       9.00000000      54.93804400       26        5
Mn       1.80000000       3.60000000       9.00000000      54.93804400       27        5
Cr       1.80000000       5.40000000       7.20000000      51.99610000       28        3
Fe       0.00000000       3.60000000      10.80000000      55.84500000       29        4
Mn       0.00000000       5.40000000      12.60000000      54.93804400       30        5
Mn       1.80000000       3.60000000      12.60000000      54.93804400       31        5
Fe       1.80000000       5.40000000      10.80000000      55.84500000       32        4
Mn       0.00000000       7.20000000       0.00000000      54.93804400       33        5
Co       0.00000000       9.00000000       1.80000000      58.93319400       34        1
Ni       1.80000000       7.20000000       1.80000000      58.69340000       35        2
Cr       1.80000000       9.00000000       0.00000000      51.99610000       36        3
Co       0.00000000       7.20000000       3.60000000      58.93319400       37        1
Ni       0.00000000       9.00000000       5.40000000      58.69340000       38        2
Co       1.80000000       7.20000000       5.40000000      58.93319400       39        1
Cr       1.80000000       9.00000000       3.60000000      51.99610000       40        3
Cr       0.00000000       7.20000000       7.20000000      51.99610000       41        3
Fe       0.00000000       9.00000000       9.00000000      55.84500000       42        4
Fe       1.80000000       7.20000000       9.00000000      55.84500000       43        4
Ni       1.80000000       9.00000000       7.20000000      58.69340000       44        2
Mn       0.00000000       7.20000000      10.80000000      54.93804400       45        5
Fe       0.00000000       9.00000000      12.60000000      55.84500000       46        4
Fe       1.80000000       7.20000000      12.60000000      55.84500000       47        4
Mn       1.80000000       9.00000000      10.80000000      54.93804400       48        5
Ni       0.00000000      10.80000000       0.00000000      58.69340000       49        2
Mn       0.00000000      12.60000000       1.80000000      54.93804400       50        5
Ni       1.80000000      10.80000000       1.80000000      58.69340000       51        2
Co       1.80000000      12.60000000       0.00000000      58.93319400       52        1
Cr       0.00000000      10.80000000       3.60000000      51.99610000       53        3
Ni       0.00000000      12.60000000       5.40000000      58.69340000       54        2
Ni       1.80000000      10.80000000       5.40000000      58.69340000       55        2
Cr       1.80000000      12.60000000       3.60000000      51.99610000       56        3
Cr       0.00000000      10.80000000       7.20000000      51.99610000       57        3
Fe       0.00000000      12.60000000       9.00000000      55.84500000       58        4
Co       1.80000000      10.80000000       9.00000000      58.93319400       59        1
Co       1.80000000      12.60000000       7.20000000      58.93319400       60        1
Ni       0.00000000      10.80000000      10.80000000      58.69340000       61        2
Co       0.00000000      12.60000000      12.60000000      58.93319400       62        1
Cr       1.80000000      10.80000000      12.60000000      51.99610000       63        3
Co       1.80000000      12.60000000      10.80000000      58.93319400       64        1
Mn       3.60000000       0.00000000       0.00000000      54.93804400       65        5
Co       3.60000000       1.80000000       1.80000000      58.93319400       66        1
Cr       5.40000000       0.00000000       1.80000000      51.99610000       67        3
Fe       5.40000000       1.80000000       0.00000000      55.84500000       68        4
Ni       3.60000000       0.00000000       3.60000000      58.69340000       69        2
Co       3.60000000       1.80000000       5.40000000      58.93319400       70        1
Fe       5.40000000       0.00000000       5.40000000      55.84500000       71        4
Mn       5.40000000       1.80000000       3.60000000      54.93804400       72        5
Cr       3.60000000       0.00000000       7.20000000      51.99610000       73        3
Co       3.60000000       1.80000000       9.00000000      58.93319400       74        1
Fe       5.40000000       0.00000000       9.00000000      55.84500000       75        4
Ni       5.40000000       1.80000000       7.20000000      58.69340000       76        2
Co       3.60000000       0.00000000      10.80000000      58.93319400       77        1
Mn       3.60000000       1.80000000      12.60000000      54.93804400       78        5
Cr       5.40000000       0.00000000      12.60000000      51.99610000       79        3
Ni       5.40000000       1.80000000      10.80000000      58.69340000       80        2
Cr       3.60000000       3.60000000       0.00000000      51.99610000       81        3
Co       3.60000000       5.40000000       1.80000000      58.93319400       82        1
Mn       5.40000000       3.60000000       1.80000000      54.93804400       83        5
Fe       5.40000000       5.40000000       0.00000000      55.84500000       84        4
Fe       3.60000000       3.60000000       3.60000000      55.84500000       85        4
Ni       3.60000000       5.40000000       5.40000000      58.69340000       86        2
Co       5.40000000       3.60000000       5.40000000      58.93319400       87        1
Ni       5.40000000       5.40000000       3.60000000      58.69340000       88        2
Fe       3.60000000       3.60000000       7.20000000      55.84500000       89        4
Mn       3.60000000       5.40000000       9.00000000      54.93804400       90        5
Co       5.40000000       3.60000000       9.00000000      58.93319400       91        1
Cr       5.40000000       5.40000000       7.20000000      51.99610000       92        3
Cr       3.60000000       3.60000000      10.80000000      51.99610000       93        3
Mn       3.60000000       5.40000000      12.60000000      54.93804400       94        5
Mn       5.40000000       3.60000000      12.60000000      54.93804400       95        5
Fe       5.40000000       5.40000000      10.80000000      55.84500000       96        4
Co       3.60000000       7.20000000       0.00000000      58.93319400       97        1
Co       3.60000000       9.00000000       1.80000000      58.93319400       98        1
Ni       5.40000000       7.20000000       1.80000000      58.69340000       99        2
Co       5.40000000       9.00000000       0.00000000      58.93319400      100        1
Cr       3.60000000       7.20000000       3.60000000      51.99610000      101        3
Ni       3.60000000       9.00000000       5.40000000      58.69340000      102        2
Co       5.40000000       7.20000000       5.40000000      58.93319400      103        1
Ni       5.40000000       9.00000000       3.60000000      58.69340000      104        2
Co       3.60000000       7.20000000       7.20000000      58.93319400      105        1
Mn       3.60000000       9.00000000       9.00000000      54.93804400      106        5
Fe       5.40000000       7.20000000       9.00000000      55.84500000      107        4
Co       5.40000000       9.00000000       7.20000000      58.93319400      108        1
Cr       3.60000000       7.20000000      10.80000000      51.99610000      109        3
Ni       3.60000000       9.00000000      12.60000000      58.69340000      110        2
Cr       5.40000000       7.20000000      12.60000000      51.99610000      111        3
Co       5.40000000       9.00000000      10.80000000      58.93319400      112        1
Ni       3.60000000      10.80000000       0.00000000      58.69340000      113        2
Co       3.60000000      12.60000000       1.80000000      58.93319400      114        1
Ni       5.40000000      10.80000000       1.80000000      58.69340000      115        2
Cr       5.40000000      12.60000000       0.00000000      51.99610000      116        3
Co       3.60000000      10.80000000       3.60000000      58.93319400      117        1
Ni       3.60000000      12.60000000       5.40000000      58.69340000      118        2
Fe       5.40000000      10.80000000       5.40000000      55.84500000      119        4
Co       5.40000000      12.60000000       3.60000000      58.93319400      120        1
Cr       3.60000000      10.80000000       7.20000000      51.99610000      121        3
Ni       3.60000000      12.60000000       9.00000000      58.69340000      122        2
Co       5.40000000      10.80000000       9.00000000      58.93319400      123        1
Mn       5.40000000      12.60000000       7.20000000      54.93804400      124        5
Fe       3.60000000      10.80000000      10.80000000      55.84500000      125        4
Ni       3.60000000      12.60000000      12.60000000      58.69340000      126        2
Co       5.40000000      10.80000000      12.60000000      58.93319400      127        1
Ni       5.40000000      12.60000000      10.80000000      58.69340000      128        2
Mn       7.20000000       0.00000000       0.00000000      54.93804400      129        5
Fe       7.20000000       1.80000000       1.80000000      55.84500000      130        4
Cr       9.00000000       0.00000000       1.80000000      51.99610000      131        3
Mn       9.00000000       1.80000000       0.00000000      54.93804400      132        5
Mn       7.20000000       0.00000000       3.60000000      54.93804400      133        5
Cr       7.20000000       1.80000000       5.40000000      51.99610000      134        3
Fe       9.00000000       0.00000000       5.40000000      55.84500000      135        4
Fe       9.00000000       1.80000000       3.60000000      55.84500000      136        4
Cr       7.20000000       0.00000000       7.20000000      51.99610000      137        3
Cr       7.20000000       1.80000000       9.00000000      51.99610000      138        3
Mn       9.00000000       0.00000000       9.00000000      54.93804400      139        5
Mn       9.00000000       1.80000000       7.20000000      54.93804400      140        5
Mn       7.20000000       0.00000000      10.80000000      54.93804400      141        5
Fe       7.20000000       1.80000000      12.60000000      55.84500000      142        4
Cr       9.00000000       0.00000000      12.60000000      51.99610000      143        3
Mn       9.00000000       1.80000000      10.80000000      54.93804400      144        5
Mn       7.20000000       3.60000000       0.00000000      54.93804400      145        5
Cr       7.20000000       5.40000000       1.80000000      51.99610000      146        3
Mn       9.00000000       3.60000000       1.80000000      54.93804400      147        5
Cr       9.00000000       5.40000000       0.00000000      51.99610000      148        3
Mn       7.20000000       3.60000000       3.60000000      54.93804400      149        5
Cr       7.20000000       5.40000000       5.40000000      51.99610000      150        3
Co       9.00000000       3.60000000       5.40000000      58.93319400      151        1
Fe       9.00000000       5.40000000       3.60000000      55.84500000      152        4
Ni       7.20000000       3.60000000       7.20000000      58.69340000      153        2
Co       7.20000000       5.40000000       9.00000000      58.93319400      154        1
Mn       9.00000000       3.60000000       9.00000000      54.93804400      155        5
Fe       9.00000000       5.40000000       7.20000000      55.84500000      156        4
Fe       7.20000000       3.60000000      10.80000000      55.84500000      157        4
Mn       7.20000000       5.40000000      12.60000000      54.93804400      158        5
Mn       9.00000000       3.60000000      12.60000000      54.93804400      159        5
Cr       9.00000000       5.40000000      10.80000000      51.99610000      160        3
Mn       7.20000000       7.20000000       0.00000000      54.93804400      161        5
Cr       7.20000000       9.00000000       1.80000000      51.99610000      162        3
Ni       9.00000000       7.20000000       1.80000000      58.69340000      163        2
Mn       9.00000000       9.00000000       0.00000000      54.93804400      164        5
Co       7.20000000       7.20000000       3.60000000      58.93319400      165        1
Cr       7.20000000       9.00000000       5.40000000      51.99610000      166        3
Ni       9.00000000       7.20000000       5.40000000      58.69340000      167        2
Co       9.00000000       9.00000000       3.60000000      58.93319400      168        1
Ni       7.20000000       7.20000000       7.20000000      58.69340000      169        2
Fe       7.20000000       9.00000000       9.00000000      55.84500000      170        4
Mn       9.00000000       7.20000000       9.00000000      54.93804400      171        5
Co       9.00000000       9.00000000       7.20000000      58.93319400      172        1
Mn       7.20000000       7.20000000      10.80000000      54.93804400      173        5
Fe       7.20000000       9.00000000      12.60000000      55.84500000      174        4
Fe       9.00000000       7.20000000      12.60000000      55.84500000      175        4
Mn       9.00000000       9.00000000      10.80000000      54.93804400      176        5
Ni       7.20000000      10.80000000       0.00000000      58.69340000      177        2
Co       7.20000000      12.60000000       1.80000000      58.93319400      178        1
Co       9.00000000      10.80000000       1.80000000      58.93319400      179        1
Fe       9.00000000      12.60000000       0.00000000      55.84500000      180        4
Ni       7.20000000      10.80000000       3.60000000      58.69340000      181        2
Mn       7.20000000      12.60000000       5.40000000      54.93804400      182        5
Cr       9.00000000      10.80000000       5.40000000      51.99610000      183        3
Fe       9.00000000      12.60000000       3.60000000      55.84500000      184        4
Mn       7.20000000      10.80000000       7.20000000      54.93804400      185        5
Fe       7.20000000      12.60000000       9.00000000      55.84500000      186        4
Mn       9.00000000      10.80000000       9.00000000      54.93804400      187        5
Mn       9.00000000      12.60000000       7.20000000      54.93804400      188        5
Co       7.20000000      10.80000000      10.80000000      58.93319400      189        1
Ni       7.20000000      12.60000000      12.60000000      58.69340000      190        2
Cr       9.00000000      10.80000000      12.60000000      51.99610000      191        3
Fe       9.00000000      12.60000000      10.80000000      55.84500000      192        4
Mn      10.80000000       0.00000000       0.00000000      54.93804400      193        5
Cr      10.80000000       1.80000000       1.80000000      51.99610000      194        3
Fe      12.60000000       0.00000000       1.80000000      55.84500000      195        4
Mn      12.60000000       1.80000000       0.00000000      54.93804400      196        5
Co      10.80000000       0.00000000       3.60000000      58.93319400      197        1
Ni      10.80000000       1.80000000       5.40000000      58.69340000      198        2
Cr      12.60000000       0.00000000       5.40000000      51.99610000      199        3
Ni      12.60000000       1.80000000       3.60000000      58.69340000      200        2
Cr      10.80000000       0.00000000       7.20000000      51.99610000      201        3
Fe      10.80000000       1.80000000       9.00000000      55.84500000      202        4
Mn      12.60000000       0.00000000       9.00000000      54.93804400      203        5
Mn      12.60000000       1.80000000       7.20000000      54.93804400      204        5
Mn      10.80000000       0.00000000      10.80000000      54.93804400      205        5
Fe      10.80000000       1.80000000      12.60000000      55.84500000      206        4
Fe      12.60000000       0.00000000      12.60000000      55.84500000      207        4
Mn      12.60000000       1.80000000      10.80000000      54.93804400      208        5
Fe      10.80000000       3.60000000       0.00000000      55.84500000      209        4
Co      10.80000000       5.40000000       1.80000000      58.93319400      210        1
Ni      12.60000000       3.60000000       1.80000000      58.69340000      211        2
Fe      12.60000000       5.40000000       0.00000000      55.84500000      212        4
Co      10.80000000       3.60000000       3.60000000      58.93319400      213        1
Ni      10.80000000       5.40000000       5.40000000      58.69340000      214        2
Co      12.60000000       3.60000000       5.40000000      58.93319400      215        1
Fe      12.60000000       5.40000000       3.60000000      55.84500000      216        4
Fe      10.80000000       3.60000000       7.20000000      55.84500000      217        4
Mn      10.80000000       5.40000000       9.00000000      54.93804400      218        5
Mn      12.60000000       3.60000000       9.00000000      54.93804400      219        5
Fe      12.60000000       5.40000000       7.20000000      55.84500000      220        4
Cr      10.80000000       3.60000000      10.80000000      51.99610000      221        3
Mn      10.80000000       5.40000000      12.60000000      54.93804400      222        5
Mn      12.60000000       3.60000000      12.60000000      54.93804400      223        5
Fe      12.60000000       5.40000000      10.80000000      55.84500000      224        4
Co      10.80000000       7.20000000       0.00000000      58.93319400      225        1
Fe      10.80000000       9.00000000       1.80000000      55.84500000      226        4
Ni      12.60000000       7.20000000       1.80000000      58.69340000      227        2
Co      12.60000000       9.00000000       0.00000000      58.93319400      228        1
Co      10.80000000       7.20000000       3.60000000      58.93319400      229        1
Ni      10.80000000       9.00000000       5.40000000      58.69340000      230        2
Cr      12.60000000       7.20000000       5.40000000      51.99610000      231        3
Co      12.60000000       9.00000000       3.60000000      58.93319400      232        1
Cr      10.80000000       7.20000000       7.20000000      51.99610000      233        3
Fe      10.80000000       9.00000000       9.00000000      55.84500000      234        4
Mn      12.60000000       7.20000000       9.00000000      54.93804400      235        5
Mn      12.60000000       9.00000000       7.20000000      54.93804400      236        5
Co      10.80000000       7.20000000      10.80000000      58.93319400      237        1
Fe      10.80000000       9.00000000      12.60000000      55.84500000      238        4
Mn      12.60000000       7.20000000      12.60000000      54.93804400      239        5
Cr      12.60000000       9.00000000      10.80000000      51.99610000      240        3
Mn      10.80000000      10.80000000       0.00000000      54.93804400      241        5
Mn      10.80000000      12.60000000       1.80000000      54.93804400      242        5
Fe      12.60000000      10.80000000       1.80000000      55.84500000      243        4
Cr      12.60000000      12.60000000       0.00000000      51.99610000      244        3
Ni      10.80000000      10.80000000       3.60000000      58.69340000      245        2
Mn      10.80000000      12.60000000       5.40000000      54.93804400      246        5
Fe      12.60000000      10.80000000       5.40000000      55.84500000      247        4
Cr      12.60000000      12.60000000       3.60000000      51.99610000      248        3
Cr      10.80000000      10.80000000       7.20000000      51.99610000      249        3
Fe      10.80000000      12.60000000       9.00000000      55.84500000      250        4
Mn      12.60000000      10.80000000       9.00000000      54.93804400      251        5
Mn      12.60000000      12.60000000       7.20000000      54.93804400      252        5
Ni      10.80000000      10.80000000      10.80000000      58.69340000      253        2
Mn      10.80000000      12.60000000      12.60000000      54.93804400      254        5
Ni      12.60000000      10.80000000      12.60000000      58.69340000      255        2
Cr      12.60000000      12.60000000      10.80000000      51.99610000      256        3
