256
Lattice="14.4 0.0 0.0 0.0 14.4 0.0 0.0 0.0 14.4" Properties=species:S:1:pos:R:3:masses:R:1:id:I:1:type:I:1 comment="(written by ASE)" energy=-1021.44336149684 pbc="T T T"
Mn       0.00000000       0.00000000       0.00000000      54.93804400        1        5
Mn       0.00000000       1.80000000       1.80000000      54.93804400        2        5
Co       1.80000000       0.00000000       1.80000000      58.93319400        3        1
Mn       1.80000000       1.80000000       0.00000000      54.93804400        4        5
Co       0.00000000       0.00000000       3.60000000      58.93319400        5        1
Co       0.00000000       1.80000000       5.40000000      58.93319400        6        1
Co       1.80000000       0.00000000       5.40000000      58.93319400        7        1
Co       1.80000000       1.80000000       3.60000000      58.93319400        8        1
Co       0.00000000       0.00000000       7.20000000      58.93319400        9        1
Co       0.00000000       1.80000000       9.00000000      58.93319400       10        1
Co       1.80000000       0.00000000       9.00000000      58.93319400       11        1
Co       1.80000000       1.80000000       7.20000000      58.93319400       12        1
Co       0.00000000       0.00000000      10.80000000      58.93319400       13        1
Mn       0.00000000       1.80000000      12.60000000      54.93804400       14        5
Co       1.80000000       0.00000000      12.60000000      58.93319400       15        1
Co       1.80000000       1.80000000      10.80000000      58.93319400       16        1
Mn       0.00000000       3.60000000       0.00000000      54.93804400       17        5
Mn       0.00000000       5.40000000       1.80000000      54.93804400       18        5
Mn       1.80000000       3.60000000       1.80000000      54.93804400       19        5
Ni       1.80000000       5.40000000       0.00000000      58.69340000       20        2
Ni       0.00000000       3.60000000       3.60000000      58.69340000       21        2
Cr       0.00000000       5.40000000       5.40000000      51.99610000       22        3
Co       1.80000000       3.60000000       5.40000000      58.93319400       23        1
Cr       1.80000000       5.40000000       3.60000000      51.99610000       24        3
Co       0.00000000       3.60000000       7.20000000      58.93319400       25        1
Co       0.00000000       5.40000000       9.00000000      58.93319400       26        1
Cr       1.80000000       3.60000000       9.00000000      51.99610000       27        3
Co       1.80000000       5.40000000       7.20000000      58.93319400       28        1
Co       0.00000000       3.60000000      10.80000000      58.93319400       29        1
Ni       0.00000000       5.40000000      12.60000000      58.69340000       30        2
Mn       1.80000000       3.60000000      12.60000000      54.93804400       31        5
Cr       1.80000000       5.40000000      10.80000000      51.99610000       32        3
Fe       0.00000000       7.20000000       0.00000000      55.84500000       33        4
Fe       0.00000000       9.00000000       1.80000000      55.84500000       34        4
Ni       1.80000000       7.20000000       1.80000000      58.69340000       35        2
Fe       1.80000000       9.00000000       0.00000000      55.84500000       36        4
Cr       0.00000000       7.20000000       3.60000000      51.99610000       37        3
Cr       0.00000000       9.00000000       5.40000000      51.99610000       38        3
Cr       1.80000000       7.20000000       5.40000000      51.99610000       39        3
Cr       1.80000000       9.00000000       3.60000000      51.99610000       40        3
Co       0.00000000       7.20000000       7.20000000      58.93319400       41        1
Co       0.00000000       9.00000000       9.00000000      58.93319400       42        1
Co       1.80000000       7.20000000       9.00000000      58.93319400       43        1
Co       1.80000000       9.00000000       7.20000000      58.93319400       44        1
Cr       0.00000000       7.20000000      10.80000000      51.99610000       45        3
Fe       0.00000000       9.00000000      12.60000000      55.84500000       46        4
Fe       1.80000000       7.20000000      12.60000000      55.84500000       47        4
Cr       1.80000000       9.00000000      10.80000000      51.99610000       48        3
Fe       0.00000000      10.80000000       0.00000000      55.84500000       49        4
Ni       0.00000000      12.60000000       1.80000000      58.69340000       50        2
Fe       1.80000000      10.80000000       1.80000000      55.84500000       51        4
Ni       1.80000000      12.60000000       0.00000000      58.69340000       52        2
Cr       0.00000000      10.80000000       3.60000000      51.99610000       53        3
Co       0.00000000      12.60000000       5.40000000      58.93319400       54        1
Cr       1.80000000      10.80000000       5.40000000      51.99610000       55        3
Cr       1.80000000      12.60000000       3.60000000      51.99610000       56        3
Co       0.00000000      10.80000000       7.20000000      58.93319400       57        1
Co       0.00000000      12.60000000       9.00000000      58.93319400       58        1
Co       1.80000000      10.80000000       9.00000000      58.93319400       59        1
Co       1.80000000      12.60000000       7.20000000      58.93319400       60        1
Fe       0.00000000      10.80000000      10.80000000      55.84500000       61        4
Fe       0.00000000      12.60000000      12.60000000      55.84500000       62        4
Fe       1.80000000      10.80000000      12.60000000      55.84500000       63        4
Co       1.80000000      12.60000000      10.80000000      58.93319400       64        1
Co       3.60000000       0.00000000       0.00000000      58.93319400       65        1
Co       3.60000000       1.80000000       1.80000000      58.93319400       66        1
Co       5.40000000       0.00000000       1.80000000      58.93319400       67        1
Fe       5.40000000       1.80000000       0.00000000      55.84500000       68        4
Co       3.60000000       0.00000000       3.60000000      58.93319400       69        1
Co       3.60000000       1.80000000       5.40000000      58.93319400       70        1
Mn       5.40000000       0.00000000       5.40000000      54.93804400       71        5
Co       5.40000000       1.80000000       3.60000000      58.93319400       72        1
Co       3.60000000       0.00000000       7.20000000      58.93319400       73        1
Cr       3.60000000       1.80000000       9.00000000      51.99610000       74        3
Ni       5.40000000       0.00000000       9.00000000      58.69340000       75        2
Ni       5.40000000       1.80000000       7.20000000      58.69340000       76        2
Cr       3.60000000       0.00000000      10.80000000      51.99610000       77        3
Ni       3.60000000       1.80000000      12.60000000      58.69340000       78        2
Cr       5.40000000       0.00000000      12.60000000      51.99610000       79        3
Fe       5.40000000       1.80000000      10.80000000      55.84500000       80        4
Ni       3.60000000       3.60000000       0.00000000      58.69340000       81        2
Cr       3.60000000       5.40000000       1.80000000      51.99610000       82        3
Fe       5.40000000       3.60000000       1.80000000      55.84500000       83        4
Fe       5.40000000       5.40000000       0.00000000      55.84500000       84        4
Co       3.60000000       3.60000000       3.60000000      58.93319400       85        1
Cr       3.60000000       5.40000000       5.40000000      51.99610000       86        3
Cr       5.40000000       3.60000000       5.40000000      51.99610000       87        3
Cr       5.40000000       5.40000000       3.60000000      51.99610000       88        3
Cr       3.60000000       3.60000000       7.20000000      51.99610000       89        3
Cr       3.60000000       5.40000000       9.00000000      51.99610000       90        3
Fe       5.40000000       3.60000000       9.00000000      55.84500000       91        4
Cr       5.40000000       5.40000000       7.20000000      51.99610000       92        3
Ni       3.60000000       3.60000000      10.80000000      58.69340000       93        2
Fe       3.60000000       5.40000000      12.60000000      55.84500000       94        4
Fe       5.40000000       3.60000000      12.60000000      55.84500000       95        4
Fe       5.40000000       5.40000000      10.80000000      55.84500000       96        4
Fe       3.60000000       7.20000000       0.00000000      55.84500000       97        4
Ni       3.60000000       9.00000000       1.80000000      58.69340000       98        2
Cr       5.40000000       7.20000000       1.80000000      51.99610000       99        3
Cr       5.40000000       9.00000000       0.00000000      51.99610000      100        3
Cr       3.60000000       7.20000000       3.60000000      51.99610000      101        3
Cr       3.60000000       9.00000000       5.40000000      51.99610000      102        3
Cr       5.40000000       7.20000000       5.40000000      51.99610000      103        3
Cr       5.40000000       9.00000000       3.60000000      51.99610000      104        3
Co       3.60000000       7.20000000       7.20000000      58.93319400      105        1
Co       3.60000000       9.00000000       9.00000000      58.93319400      106        1
Ni       5.40000000       7.20000000       9.00000000      58.69340000      107        2
Cr       5.40000000       9.00000000       7.20000000      51.99610000      108        3
Fe       3.60000000       7.20000000      10.80000000      55.84500000      109        4
Fe       3.60000000       9.00000000      12.60000000      55.84500000      110        4
Fe       5.40000000       7.20000000      12.60000000      55.84500000      111        4
Co       5.40000000       9.00000000      10.80000000      58.93319400      112        1
Ni       3.60000000      10.80000000       0.00000000      58.69340000      113        2
Co       3.60000000      12.60000000       1.80000000      58.93319400      114        1
Cr       5.40000000      10.80000000       1.80000000      51.99610000      115        3
Co       5.40000000      12.60000000       0.00000000      58.93319400      116        1
Cr       3.60000000      10.80000000       3.60000000      51.99610000      117        3
Cr       3.60000000      12.60000000       5.40000000      51.99610000      118        3
Mn       5.40000000      10.80000000       5.40000000      54.93804400      119        5
Co       5.40000000      12.60000000       3.60000000      58.93319400      120        1
Cr       3.60000000      10.80000000       7.20000000      51.99610000      121        3
Cr       3.60000000      12.60000000       9.00000000      51.99610000      122        3
Cr       5.40000000      10.80000000       9.00000000      51.99610000      123        3
Ni       5.40000000      12.60000000       7.20000000      58.69340000      124        2
Co       3.60000000      10.80000000      10.80000000      58.93319400      125        1
Co       3.60000000      12.60000000      12.60000000      58.93319400      126        1
Co       5.40000000      10.80000000      12.60000000      58.93319400      127        1
Cr       5.40000000      12.60000000      10.80000000      51.99610000      128        3
Fe       7.20000000       0.00000000       0.00000000      55.84500000      129        4
Mn       7.20000000       1.80000000       1.80000000      54.93804400      130        5
Mn       9.00000000       0.00000000       1.80000000      54.93804400      131        5
Ni       9.00000000       1.80000000       0.00000000      58.69340000      132        2
Mn       7.20000000       0.00000000       3.60000000      54.93804400      133        5
Mn       7.20000000       1.80000000       5.40000000      54.93804400      134        5
Mn       9.00000000       0.00000000       5.40000000      54.93804400      135        5
Ni       9.00000000       1.80000000       3.60000000      58.69340000      136        2
Mn       7.20000000       0.00000000       7.20000000      54.93804400      137        5
Mn       7.20000000       1.80000000       9.00000000      54.93804400      138        5
Mn       9.00000000       0.00000000       9.00000000      54.93804400      139        5
Mn       9.00000000       1.80000000       7.20000000      54.93804400      140        5
Mn       7.20000000       0.00000000      10.80000000      54.93804400      141        5
Ni       7.20000000       1.80000000      12.60000000      58.69340000      142        2
Mn       9.00000000       0.00000000      12.60000000      54.93804400      143        5
Mn       9.00000000       1.80000000      10.80000000      54.93804400      144        5
Fe       7.20000000       3.60000000       0.00000000      55.84500000      145        4
Ni       7.20000000       5.40000000       1.80000000      58.69340000      146        2
Mn       9.00000000       3.60000000       1.80000000      54.93804400      147        5
Ni       9.00000000       5.40000000       0.00000000      58.69340000      148        2
Cr       7.20000000       3.60000000       3.60000000      51.99610000      149        3
Cr       7.20000000       5.40000000       5.40000000      51.99610000      150        3
Mn       9.00000000       3.60000000       5.40000000      54.93804400      151        5
Cr       9.00000000       5.40000000       3.60000000      51.99610000      152        3
Mn       7.20000000       3.60000000       7.20000000      54.93804400      153        5
Ni       7.20000000       5.40000000       9.00000000      58.69340000      154        2
Mn       9.00000000       3.60000000       9.00000000      54.93804400      155        5
Fe       9.00000000       5.40000000       7.20000000      55.84500000      156        4
Ni       7.20000000       3.60000000      10.80000000      58.69340000      157        2
Fe       7.20000000       5.40000000      12.60000000      55.84500000      158        4
Mn       9.00000000       3.60000000      12.60000000      54.93804400      159        5
Fe       9.00000000       5.40000000      10.80000000      55.84500000      160        4
Fe       7.20000000       7.20000000       0.00000000      55.84500000      161        4
Cr       7.20000000       9.00000000       1.80000000      51.99610000      162        3
Cr       9.00000000       7.20000000       1.80000000      51.99610000      163        3
Cr       9.00000000       9.00000000       0.00000000      51.99610000      164        3
Cr       7.20000000       7.20000000       3.60000000      51.99610000      165        3
Mn       7.20000000       9.00000000       5.40000000      54.93804400      166        5
Ni       9.00000000       7.20000000       5.40000000      58.69340000      167        2
Cr       9.00000000       9.00000000       3.60000000      51.99610000      168        3
Cr       7.20000000       7.20000000       7.20000000      51.99610000      169        3
Fe       7.20000000       9.00000000       9.00000000      55.84500000      170        4
Fe       9.00000000       7.20000000       9.00000000      55.84500000      171        4
Fe       9.00000000       9.00000000       7.20000000      55.84500000      172        4
Fe       7.20000000       7.20000000      10.80000000      55.84500000      173        4
Cr       7.20000000       9.00000000      12.60000000      51.99610000      174        3
Ni       9.00000000       7.20000000      12.60000000      58.69340000      175        2
Fe       9.00000000       9.00000000      10.80000000      55.84500000      176        4
Co       7.20000000      10.80000000       0.00000000      58.93319400      177        1
Ni       7.20000000      12.60000000       1.80000000      58.69340000      178        2
Fe       9.00000000      10.80000000       1.80000000      55.84500000      179        4
Fe       9.00000000      12.60000000       0.00000000      55.84500000      180        4
Ni       7.20000000      10.80000000       3.60000000      58.69340000      181        2
Mn       7.20000000      12.60000000       5.40000000      54.93804400      182        5
Mn       9.00000000      10.80000000       5.40000000      54.93804400      183        5
Mn       9.00000000      12.60000000       3.60000000      54.93804400      184        5
Mn       7.20000000      10.80000000       7.20000000      54.93804400      185        5
Mn       7.20000000      12.60000000       9.00000000      54.93804400      186        5
Ni       9.00000000      10.80000000       9.00000000      58.69340000      187        2
Mn       9.00000000      12.60000000       7.20000000      54.93804400      188        5
Ni       7.20000000      10.80000000      10.80000000      58.69340000      189        2
Mn       7.20000000      12.60000000      12.60000000      54.93804400      190        5
Fe       9.00000000      10.80000000      12.60000000      55.84500000      191        4
Mn       9.00000000      12.60000000      10.80000000      54.93804400      192        5
Ni      10.80000000       0.00000000       0.00000000      58.69340000      193        2
Mn      10.80000000       1.80000000       1.80000000      54.93804400      194        5
Mn      12.60000000       0.00000000       1.80000000      54.93804400      195        5
Mn      12.60000000       1.80000000       0.00000000      54.93804400      196        5
Mn      10.80000000       0.00000000       3.60000000      54.93804400      197        5
Mn      10.80000000       1.80000000       5.40000000      54.93804400      198        5
Mn      12.60000000       0.00000000       5.40000000      54.93804400      199        5
Mn      12.60000000       1.80000000       3.60000000      54.93804400      200        5
Ni      10.80000000       0.00000000       7.20000000      58.69340000      201        2
Mn      10.80000000       1.80000000       9.00000000      54.93804400      202        5
Ni      12.60000000       0.00000000       9.00000000      58.69340000      203        2
Ni      12.60000000       1.80000000       7.20000000      58.69340000      204        2
Ni      10.80000000       0.00000000      10.80000000      58.69340000      205        2
Mn      10.80000000       1.80000000      12.60000000      54.93804400      206        5
Mn      12.60000000       0.00000000      12.60000000      54.93804400      207        5
Mn      12.60000000       1.80000000      10.80000000      54.93804400      208        5
Mn      10.80000000       3.60000000       0.00000000      54.93804400      209        5
Mn      10.80000000       5.40000000       1.80000000      54.93804400      210        5
Mn      12.60000000       3.60000000       1.80000000      54.93804400      211        5
Mn      12.60000000       5.40000000       0.00000000      54.93804400      212        5
Ni      10.80000000       3.60000000       3.60000000      58.69340000      213        2
Mn      10.80000000       5.40000000       5.40000000      54.93804400      214        5
Mn      12.60000000       3.60000000       5.40000000      54.93804400      215        5
Mn      12.60000000       5.40000000       3.60000000      54.93804400      216        5
Ni      10.80000000       3.60000000       7.20000000      58.69340000      217        2
Ni      10.80000000       5.40000000       9.00000000      58.69340000      218        2
Co      12.60000000       3.60000000       9.00000000      58.93319400      219        1
Co      12.60000000       5.40000000       7.20000000      58.93319400      220        1
Mn      10.80000000       3.60000000      10.80000000      54.93804400      221        5
Mn      10.80000000       5.40000000      12.60000000      54.93804400      222        5
Mn      12.60000000       3.60000000      12.60000000      54.93804400      223        5
Ni      12.60000000       5.40000000      10.80000000      58.69340000      224        2
Mn      10.80000000       7.20000000       0.00000000      54.93804400      225        5
Fe      10.80000000       9.00000000       1.80000000      55.84500000      226        4
Ni      12.60000000       7.20000000       1.80000000      58.69340000      227        2
Fe      12.60000000       9.00000000       0.00000000      55.84500000      228        4
Ni      10.80000000       7.20000000       3.60000000      58.69340000      229        2
Fe      10.80000000       9.00000000       5.40000000      55.84500000      230        4
Ni      12.60000000       7.20000000       5.40000000      58.69340000      231        2
Fe      12.60000000       9.00000000       3.60000000      55.84500000      232        4
Fe      10.80000000       7.20000000       7.20000000      55.84500000      233        4
Ni      10.80000000       9.00000000       9.00000000      58.69340000      234        2
Co      12.60000000       7.20000000       9.00000000      58.93319400      235        1
Co      12.60000000       9.00000000       7.20000000      58.93319400      236        1
Fe      10.80000000       7.20000000      10.80000000      55.84500000      237        4
Fe      10.80000000       9.00000000      12.60000000      55.84500000      238        4
Fe      12.60000000       7.20000000      12.60000000      55.84500000      239        4
Fe      12.60000000       9.00000000      10.80000000      55.84500000      240        4
Fe      10.80000000      10.80000000       0.00000000      55.84500000      241        4
Ni      10.80000000      12.60000000       1.80000000      58.69340000      242        2
Fe      12.60000000      10.80000000       1.80000000      55.84500000      243        4
Fe      12.60000000      12.60000000       0.00000000      55.84500000      244        4
Ni      10.80000000      10.80000000       3.60000000      58.69340000      245        2
Mn      10.80000000      12.60000000       5.40000000      54.93804400      246        5
Ni      12.60000000      10.80000000       5.40000000      58.69340000      247        2
Mn      12.60000000      12.60000000       3.60000000      54.93804400      248        5
Fe      10.80000000      10.80000000       7.20000000      55.84500000      249        4
Fe      10.80000000      12.60000000       9.00000000      55.84500000      250        4
Ni      12.60000000      10.80000000       9.00000000      58.69340000      251        2
Mn      12.60000000      12.60000000       7.20000000      54.93804400      252        5
Fe      10.80000000      10.80000000      10.80000000      55.84500000      253        4
Fe      10.80000000      12.60000000      12.60000000      55.84500000      254        4
Ni      12.60000000      10.80000000      12.60000000      58.69340000      255        2
Fe      12.60000000      12.60000000      10.80000000      55.84500000      256        4
