256
Lattice="14.4 0.0 0.0 0.0 14.4 0.0 0.0 0.0 14.4" Properties=species:S:1:pos:R:3:masses:R:1:id:I:1:type:I:1 comment="(written by ASE)" energy=-1022.53085838643 pbc="T T T"
Co       0.00000000       0.00000000       0.00000000      58.93319400        1        1
Co       0.00000000       1.80000000       1.80000000      58.93319400        2        1
Cr       1.80000000       0.00000000       1.80000000      51.99610000        3        3
Co       1.80000000       1.80000000       0.00000000      58.93319400        4        1
Cr       0.00000000       0.00000000       3.60000000      51.99610000        5        3
Ni       0.00000000       1.80000000       5.40000000      58.69340000        6        2
Co       1.80000000       0.00000000       5.40000000      58.93319400        7        1
Ni       1.80000000       1.80000000       3.60000000      58.69340000        8        2
Co       0.00000000       0.00000000       7.20000000      58.93319400        9        1
Mn       0.00000000       1.80000000       9.00000000      54.93804400       10        5
Co       1.80000000       0.00000000       9.00000000      58.93319400       11        1
Co       1.80000000       1.80000000       7.20000000      58.93319400       12        1
Cr       0.00000000       0.00000000      10.80000000      51.99610000       13        3
Co       0.00000000       1.80000000      12.60000000      58.93319400       14        1
Co       1.80000000       0.00000000      12.60000000      58.93319400       15        1
Co       1.80000000       1.80000000      10.80000000      58.93319400       16        1
Co       0.00000000       3.60000000       0.00000000      58.93319400       17        1
Cr       0.00000000       5.40000000       1.80000000      51.99610000       18        3
Fe       1.80000000       3.60000000       1.80000000      55.84500000       19        4
Mn       1.80000000       5.40000000       0.00000000      54.93804400       20        5
Mn       0.00000000       3.60000000       3.60000000      54.93804400       21        5
Mn       0.00000000       5.40000000       5.40000000      54.93804400       22        5
Cr       1.80000000       3.60000000       5.40000000      51.99610000       23        3
Mn       1.80000000       5.40000000       3.60000000      54.93804400       24        5
Cr       0.00000000       3.60000000       7.20000000      51.99610000       25        3
Fe       0.00000000       5.40000000       9.00000000      55.84500000       26        4
Ni       1.80000000       3.60000000       9.00000000      58.69340000       27        2
Ni       1.80000000       5.40000000       7.20000000      58.69340000       28        2
Cr       0.00000000       3.60000000      10.80000000      51.99610000       29        3
Ni       0.00000000       5.40000000      12.60000000      58.69340000       30        2
Co       1.80000000       3.60000000      12.60000000      58.93319400       31        1
Fe       1.80000000       5.40000000      10.80000000      55.84500000       32        4
Ni       0.00000000       7.20000000       0.00000000      58.69340000       33        2
Cr       0.00000000       9.00000000       1.80000000      51.99610000       34        3
Mn       1.80000000       7.20000000       1.80000000      54.93804400       35        5
Fe       1.80000000       9.00000000       0.00000000      55.84500000       36        4
Cr       0.00000000       7.20000000       3.60000000      51.99610000       37        3
Mn       0.00000000       9.00000000       5.40000000      54.93804400       38        5
Cr       1.80000000       7.20000000       5.40000000      51.99610000       39        3
Mn       1.80000000       9.00000000       3.60000000      54.93804400       40        5
Fe       0.00000000       7.20000000       7.20000000      55.84500000       41        4
Ni       0.00000000       9.00000000       9.00000000      58.69340000       42        2
Fe       1.80000000       7.20000000       9.00000000      55.84500000       43        4
Mn       1.80000000       9.00000000       7.20000000      54.93804400       44        5
Fe       0.00000000       7.20000000      10.80000000      55.84500000       45        4
Fe       0.00000000       9.00000000      12.60000000      55.84500000       46        4
Fe       1.80000000       7.20000000      12.60000000      55.84500000       47        4
Fe       1.80000000       9.00000000      10.80000000      55.84500000       48        4
Mn       0.00000000      10.80000000       0.00000000      54.93804400       49        5
Mn       0.00000000      12.60000000       1.80000000      54.93804400       50        5
Mn       1.80000000      10.80000000       1.80000000      54.93804400       51        5
Fe       1.80000000      12.60000000       0.00000000      55.84500000       52        4
Cr       0.00000000      10.80000000       3.60000000      51.99610000       53        3
Mn       0.00000000      12.60000000       5.40000000      54.93804400       54        5
Mn       1.80000000      10.80000000       5.40000000      54.93804400       55        5
Mn       1.80000000      12.60000000       3.60000000      54.93804400       56        5
Cr       0.00000000      10.80000000       7.20000000      51.99610000       57        3
Co       0.00000000      12.60000000       9.00000000      58.93319400       58        1
Co       1.80000000      10.80000000       9.00000000      58.93319400       59        1
Co       1.80000000      12.60000000       7.20000000      58.93319400       60        1
Fe       0.00000000      10.80000000      10.80000000      55.84500000       61        4
Mn       0.00000000      12.60000000      12.60000000      54.93804400       62        5
Fe       1.80000000      10.80000000      12.60000000      55.84500000       63        4
Co       1.80000000      12.60000000      10.80000000      58.93319400       64        1
Fe       3.60000000       0.00000000       0.00000000      55.84500000       65        4
Co       3.60000000       1.80000000       1.80000000      58.93319400       66        1
Cr       5.40000000       0.00000000       1.80000000      51.99610000       67        3
Ni       5.40000000       1.80000000       0.00000000      58.69340000       68        2
Co       3.60000000       0.00000000       3.60000000      58.93319400       69        1
Co       3.60000000       1.80000000       5.40000000      58.93319400       70        1
Co       5.40000000       0.00000000       5.40000000      58.93319400       71        1
Co       5.40000000       1.80000000       3.60000000      58.93319400       72        1
Co       3.60000000       0.00000000       7.20000000      58.93319400       73        1
Co       3.60000000       1.80000000       9.00000000      58.93319400       74        1
Co       5.40000000       0.00000000       9.00000000      58.93319400       75        1
Co       5.40000000       1.80000000       7.20000000      58.93319400       76        1
Co       3.60000000       0.00000000      10.80000000      58.93319400       77        1
Co       3.60000000       1.80000000      12.60000000      58.93319400       78        1
Fe       5.40000000       0.00000000      12.60000000      55.84500000       79        4
Ni       5.40000000       1.80000000      10.80000000      58.69340000       80        2
Cr       3.60000000       3.60000000       0.00000000      51.99610000       81        3
Mn       3.60000000       5.40000000       1.80000000      54.93804400       82        5
Co       5.40000000       3.60000000       1.80000000      58.93319400       83        1
Ni       5.40000000       5.40000000       0.00000000      58.69340000       84        2
Co       3.60000000       3.60000000       3.60000000      58.93319400       85        1
Cr       3.60000000       5.40000000       5.40000000      51.99610000       86        3
Co       5.40000000       3.60000000       5.40000000      58.93319400       87        1
Mn       5.40000000       5.40000000       3.60000000      54.93804400       88        5
Co       3.60000000       3.60000000       7.20000000      58.93319400       89        1
Fe       3.60000000       5.40000000       9.00000000      55.84500000       90        4
Fe       5.40000000       3.60000000       9.00000000      55.84500000       91        4
Ni       5.40000000       5.40000000       7.20000000      58.69340000       92        2
Co       3.60000000       3.60000000      10.80000000      58.93319400       93        1
Ni       3.60000000       5.40000000      12.60000000      58.69340000       94        2
Fe       5.40000000       3.60000000      12.60000000      55.84500000       95        4
Fe       5.40000000       5.40000000      10.80000000      55.84500000       96        4
Cr       3.60000000       7.20000000       0.00000000      51.99610000       97        3
Mn       3.60000000       9.00000000       1.80000000      54.93804400       98        5
Mn       5.40000000       7.20000000       1.80000000      54.93804400       99        5
Mn       5.40000000       9.00000000       0.00000000      54.93804400      100        5
Cr       3.60000000       7.20000000       3.60000000      51.99610000      101        3
Mn       3.60000000       9.00000000       5.40000000      54.93804400      102        5
Ni       5.40000000       7.20000000       5.40000000      58.69340000      103        2
Fe       5.40000000       9.00000000       3.60000000      55.84500000      104        4
Ni       3.60000000       7.20000000       7.20000000      58.69340000      105        2
Ni       3.60000000       9.00000000       9.00000000      58.69340000      106        2
Fe       5.40000000       7.20000000       9.00000000      55.84500000      107        4
Fe       5.40000000       9.00000000       7.20000000      55.84500000      108        4
Fe       3.60000000       7.20000000      10.80000000      55.84500000      109        4
Ni       3.60000000       9.00000000      12.60000000      58.69340000      110        2
Fe       5.40000000       7.20000000      12.60000000      55.84500000      111        4
Ni       5.40000000       9.00000000      10.80000000      58.69340000      112        2
Mn       3.60000000      10.80000000       0.00000000      54.93804400      113        5
Mn       3.60000000      12.60000000       1.80000000      54.93804400      114        5
Cr       5.40000000      10.80000000       1.80000000      51.99610000      115        3
Mn       5.40000000      12.60000000       0.00000000      54.93804400      116        5
Mn       3.60000000      10.80000000       3.60000000      54.93804400      117        5
Co       3.60000000      12.60000000       5.40000000      58.93319400      118        1
Co       5.40000000      10.80000000       5.40000000      58.93319400      119        1
Mn       5.40000000      12.60000000       3.60000000      54.93804400      120        5
Cr       3.60000000      10.80000000       7.20000000      51.99610000      121        3
Ni       3.60000000      12.60000000       9.00000000      58.69340000      122        2
Co       5.40000000      10.80000000       9.00000000      58.93319400      123        1
Co       5.40000000      12.60000000       7.20000000      58.93319400      124        1
Cr       3.60000000      10.80000000      10.80000000      51.99610000      125        3
Ni       3.60000000      12.60000000      12.60000000      58.69340000      126        2
Mn       5.40000000      10.80000000      12.60000000      54.93804400      127        5
Ni       5.40000000      12.60000000      10.80000000      58.69340000      128        2
Fe       7.20000000       0.00000000       0.00000000      55.84500000      129        4
Ni       7.20000000       1.80000000       1.80000000      58.69340000      130        2
Mn       9.00000000       0.00000000       1.80000000      54.93804400      131        5
Fe       9.00000000       1.80000000       0.00000000      55.84500000      132        4
Co       7.20000000       0.00000000       3.60000000      58.93319400      133        1
Co       7.20000000       1.80000000       5.40000000      58.93319400      134        1
Co       9.00000000       0.00000000       5.40000000      58.93319400      135        1
Fe       9.00000000       1.80000000       3.60000000      55.84500000      136        4
Co       7.20000000       0.00000000       7.20000000      58.93319400      137        1
Fe       7.20000000       1.80000000       9.00000000      55.84500000      138        4
Ni       9.00000000       0.00000000       9.00000000      58.69340000      139        2
Fe       9.00000000       1.80000000       7.20000000      55.84500000      140        4
Fe       7.20000000       0.00000000      10.80000000      55.84500000      141        4
Fe       7.20000000       1.80000000      12.60000000      55.84500000      142        4
Ni       9.00000000       0.00000000      12.60000000      58.69340000      143        2
Ni       9.00000000       1.80000000      10.80000000      58.69340000      144        2
Fe       7.20000000       3.60000000       0.00000000      55.84500000      145        4
Co       7.20000000       5.40000000       1.80000000      58.93319400      146        1
Co       9.00000000       3.60000000       1.80000000      58.93319400      147        1
Co       9.00000000       5.40000000       0.00000000      58.93319400      148        1
Co       7.20000000       3.60000000       3.60000000      58.93319400      149        1
Fe       7.20000000       5.40000000       5.40000000      55.84500000      150        4
Fe       9.00000000       3.60000000       5.40000000      55.84500000      151        4
Co       9.00000000       5.40000000       3.60000000      58.93319400      152        1
Ni       7.20000000       3.60000000       7.20000000      58.69340000      153        2
Fe       7.20000000       5.40000000       9.00000000      55.84500000      154        4
Fe       9.00000000       3.60000000       9.00000000      55.84500000      155        4
Fe       9.00000000       5.40000000       7.20000000      55.84500000      156        4
Fe       7.20000000       3.60000000      10.80000000      55.84500000      157        4
Fe       7.20000000       5.40000000      12.60000000      55.84500000      158        4
Ni       9.00000000       3.60000000      12.60000000      58.69340000      159        2
Fe       9.00000000       5.40000000      10.80000000      55.84500000      160        4
Mn       7.20000000       7.20000000       0.00000000      54.93804400      161        5
Cr       7.20000000       9.00000000       1.80000000      51.99610000      162        3
Ni       9.00000000       7.20000000       1.80000000      58.69340000      163        2
Cr       9.00000000       9.00000000       0.00000000      51.99610000      164        3
Cr       7.20000000       7.20000000       3.60000000      51.99610000      165        3
Fe       7.20000000       9.00000000       5.40000000      55.84500000      166        4
Ni       9.00000000       7.20000000       5.40000000      58.69340000      167        2
Mn       9.00000000       9.00000000       3.60000000      54.93804400      168        5
Fe       7.20000000       7.20000000       7.20000000      55.84500000      169        4
Fe       7.20000000       9.00000000       9.00000000      55.84500000      170        4
Fe       9.00000000       7.20000000       9.00000000      55.84500000      171        4
Fe       9.00000000       9.00000000       7.20000000      55.84500000      172        4
Ni       7.20000000       7.20000000      10.80000000      58.69340000      173        2
Cr       7.20000000       9.00000000      12.60000000      51.99610000      174        3
Ni       9.00000000       7.20000000      12.60000000      58.69340000      175        2
Co       9.00000000       9.00000000      10.80000000      58.93319400      176        1
Mn       7.20000000      10.80000000       0.00000000      54.93804400      177        5
Mn       7.20000000      12.60000000       1.80000000      54.93804400      178        5
Mn       9.00000000      10.80000000       1.80000000      54.93804400      179        5
Cr       9.00000000      12.60000000       0.00000000      51.99610000      180        3
Ni       7.20000000      10.80000000       3.60000000      58.69340000      181        2
Co       7.20000000      12.60000000       5.40000000      58.93319400      182        1
Cr       9.00000000      10.80000000       5.40000000      51.99610000      183        3
Cr       9.00000000      12.60000000       3.60000000      51.99610000      184        3
Ni       7.20000000      10.80000000       7.20000000      58.69340000      185        2
Co       7.20000000      12.60000000       9.00000000      58.93319400      186        1
Ni       9.00000000      10.80000000       9.00000000      58.69340000      187        2
Cr       9.00000000      12.60000000       7.20000000      51.99610000      188        3
Cr       7.20000000      10.80000000      10.80000000      51.99610000      189        3
Ni       7.20000000      12.60000000      12.60000000      58.69340000      190        2
Mn       9.00000000      10.80000000      12.60000000      54.93804400      191        5
Cr       9.00000000      12.60000000      10.80000000      51.99610000      192        3
Mn      10.80000000       0.00000000       0.00000000      54.93804400      193        5
Mn      10.80000000       1.80000000       1.80000000      54.93804400      194        5
Mn      12.60000000       0.00000000       1.80000000      54.93804400      195        5
Cr      12.60000000       1.80000000       0.00000000      51.99610000      196        3
Mn      10.80000000       0.00000000       3.60000000      54.93804400      197        5
Ni      10.80000000       1.80000000       5.40000000      58.69340000      198        2
Mn      12.60000000       0.00000000       5.40000000      54.93804400      199        5
Cr      12.60000000       1.80000000       3.60000000      51.99610000      200        3
Mn      10.80000000       0.00000000       7.20000000      54.93804400      201        5
Cr      10.80000000       1.80000000       9.00000000      51.99610000      202        3
Cr      12.60000000       0.00000000       9.00000000      51.99610000      203        3
Mn      12.60000000       1.80000000       7.20000000      54.93804400      204        5
Mn      10.80000000       0.00000000      10.80000000      54.93804400      205        5
Cr      10.80000000       1.80000000      12.60000000      51.99610000      206        3
Mn      12.60000000       0.00000000      12.60000000      54.93804400      207        5
Mn      12.60000000       1.80000000      10.80000000      54.93804400      208        5
Mn      10.80000000       3.60000000       0.00000000      54.93804400      209        5
Cr      10.80000000       5.40000000       1.80000000      51.99610000      210        3
Mn      12.60000000       3.60000000       1.80000000      54.93804400      211        5
Cr      12.60000000       5.40000000       0.00000000      51.99610000      212        3
Mn      10.80000000       3.60000000       3.60000000      54.93804400      213        5
Co      10.80000000       5.40000000       5.40000000      58.93319400      214        1
Cr      12.60000000       3.60000000       5.40000000      51.99610000      215        3
Mn      12.60000000       5.40000000       3.60000000      54.93804400      216        5
Ni      10.80000000       3.60000000       7.20000000      58.69340000      217        2
Fe      10.80000000       5.40000000       9.00000000      55.84500000      218        4
Mn      12.60000000       3.60000000       9.00000000      54.93804400      219        5
Mn      12.60000000       5.40000000       7.20000000      54.93804400      220        5
Mn      10.80000000       3.60000000      10.80000000      54.93804400      221        5
Cr      10.80000000       5.40000000      12.60000000      51.99610000      222        3
Mn      12.60000000       3.60000000      12.60000000      54.93804400      223        5
Ni      12.60000000       5.40000000      10.80000000      58.69340000      224        2
Ni      10.80000000       7.20000000       0.00000000      58.69340000      225        2
Fe      10.80000000       9.00000000       1.80000000      55.84500000      226        4
Ni      12.60000000       7.20000000       1.80000000      58.69340000      227        2
Fe      12.60000000       9.00000000       0.00000000      55.84500000      228        4
Ni      10.80000000       7.20000000       3.60000000      58.69340000      229        2
Cr      10.80000000       9.00000000       5.40000000      51.99610000      230        3
Cr      12.60000000       7.20000000       5.40000000      51.99610000      231        3
Mn      12.60000000       9.00000000       3.60000000      54.93804400      232        5
Ni      10.80000000       7.20000000       7.20000000      58.69340000      233        2
Ni      10.80000000       9.00000000       9.00000000      58.69340000      234        2
Fe      12.60000000       7.20000000       9.00000000      55.84500000      235        4
Ni      12.60000000       9.00000000       7.20000000      58.69340000      236        2
Fe      10.80000000       7.20000000      10.80000000      55.84500000      237        4
Fe      10.80000000       9.00000000      12.60000000      55.84500000      238        4
Fe      12.60000000       7.20000000      12.60000000      55.84500000      239        4
Fe      12.60000000       9.00000000      10.80000000      55.84500000      240        4
Ni      10.80000000      10.80000000       0.00000000      58.69340000      241        2
Mn      10.80000000      12.60000000       1.80000000      54.93804400      242        5
Mn      12.60000000      10.80000000       1.80000000      54.93804400      243        5
Cr      12.60000000      12.60000000       0.00000000      51.99610000      244        3
Mn      10.80000000      10.80000000       3.60000000      54.93804400      245        5
Mn      10.80000000      12.60000000       5.40000000      54.93804400      246        5
Mn      12.60000000      10.80000000       5.40000000      54.93804400      247        5
Cr      12.60000000      12.60000000       3.60000000      51.99610000      248        3
Cr      10.80000000      10.80000000       7.20000000      51.99610000      249        3
Mn      10.80000000      12.60000000       9.00000000      54.93804400      250        5
Ni      12.60000000      10.80000000       9.00000000      58.69340000      251        2
Cr      12.60000000      12.60000000       7.20000000      51.99610000      252        3
Cr      10.80000000      10.80000000      10.80000000      51.99610000      253        3
Cr      10.80000000      12.60000000      12.60000000      51.99610000      254        3
Ni      12.60000000      10.80000000      12.60000000      58.69340000      255        2
Mn      12.60000000      12.60000000      10.80000000      54.93804400      256        5
