256
Lattice="14.4 0.0 0.0 0.0 14.4 0.0 0.0 0.0 14.4" Properties=species:S:1:pos:R:3:masses:R:1:id:I:1:type:I:1 comment="(written by ASE)" energy=-1027.98717657031 pbc="T T T"
Co       0.00000000       0.00000000       0.00000000      58.93319400        1        1
Mn       0.00000000       1.80000000       1.80000000      54.93804400        2        5
Mn       1.80000000       0.00000000       1.80000000      54.93804400        3        5
Ni       1.80000000       1.80000000       0.00000000      58.69340000        4        2
Ni       0.00000000       0.00000000       3.60000000      58.69340000        5        2
Fe       0.00000000       1.80000000       5.40000000      55.84500000        6        4
Co       1.80000000       0.00000000       5.40000000      58.93319400        7        1
Co       1.80000000       1.80000000       3.60000000      58.93319400        8        1
Co       0.00000000       0.00000000       7.20000000      58.93319400        9        1
Cr       0.00000000       1.80000000       9.00000000      51.99610000       10        3
Cr       1.80000000       0.00000000       9.00000000      51.99610000       11        3
Cr       1.80000000       1.80000000       7.20000000      51.99610000       12        3
Co       0.00000000       0.00000000      10.80000000      58.93319400       13        1
Co       0.00000000       1.80000000      12.60000000      58.93319400       14        1
Fe       1.80000000       0.00000000      12.60000000      55.84500000       15        4
Cr       1.80000000       1.80000000      10.80000000      51.99610000       16        3
Fe       0.00000000       3.60000000       0.00000000      55.84500000       17        4
Cr       0.00000000       5.40000000       1.80000000      51.99610000       18        3
Cr       1.80000000       3.60000000       1.80000000      51.99610000       19        3
Co       1.80000000       5.40000000       0.00000000      58.93319400       20        1
Cr       0.00000000       3.60000000       3.60000000      51.99610000       21        3
Cr       0.00000000       5.40000000       5.40000000      51.99610000       22        3
Cr       1.80000000       3.60000000       5.40000000      51.99610000       23        3
Cr       1.80000000       5.40000000       3.60000000      51.99610000       24        3
Co       0.00000000       3.60000000       7.20000000      58.93319400       25        1
Co       0.00000000       5.40000000       9.00000000      58.93319400       26        1
Co       1.80000000       3.60000000       9.00000000      58.93319400       27        1
Co       1.80000000       5.40000000       7.20000000      58.93319400       28        1
Co       0.00000000       3.60000000      10.80000000      58.93319400       29        1
Ni       0.00000000       5.40000000      12.60000000      58.69340000       30        2
Co       1.80000000       3.60000000      12.60000000      58.93319400       31        1
Fe       1.80000000       5.40000000      10.80000000      55.84500000       32        4
Fe       0.00000000       7.20000000       0.00000000      55.84500000       33        4
Co       0.00000000       9.00000000       1.80000000      58.93319400       34        1
Co       1.80000000       7.20000000       1.80000000      58.93319400       35        1
Fe       1.80000000       9.00000000       0.00000000      55.84500000       36        4
Cr       0.00000000       7.20000000       3.60000000      51.99610000       37        3
Fe       0.00000000       9.00000000       5.40000000      55.84500000       38        4
Cr       1.80000000       7.20000000       5.40000000      51.99610000       39        3
Cr       1.80000000       9.00000000       3.60000000      51.99610000       40        3
Co       0.00000000       7.20000000       7.20000000      58.93319400       41        1
Fe       0.00000000       9.00000000       9.00000000      55.84500000       42        4
Co       1.80000000       7.20000000       9.00000000      58.93319400       43        1
Co       1.80000000       9.00000000       7.20000000      58.93319400       44        1
Co       0.00000000       7.20000000      10.80000000      58.93319400       45        1
Fe       0.00000000       9.00000000      12.60000000      55.84500000       46        4
Fe       1.80000000       7.20000000      12.60000000      55.84500000       47        4
Fe       1.80000000       9.00000000      10.80000000      55.84500000       48        4
Ni       0.00000000      10.80000000       0.00000000      58.69340000       49        2
Mn       0.00000000      12.60000000       1.80000000      54.93804400       50        5
Fe       1.80000000      10.80000000       1.80000000      55.84500000       51        4
Ni       1.80000000      12.60000000       0.00000000      58.69340000       52        2
Fe       0.00000000      10.80000000       3.60000000      55.84500000       53        4
Fe       0.00000000      12.60000000       5.40000000      55.84500000       54        4
Fe       1.80000000      10.80000000       5.40000000      55.84500000       55        4
Ni       1.80000000      12.60000000       3.60000000      58.69340000       56        2
Co       0.00000000      10.80000000       7.20000000      58.93319400       57        1
Fe       0.00000000      12.60000000       9.00000000      55.84500000       58        4
Cr       1.80000000      10.80000000       9.00000000      51.99610000       59        3
Cr       1.80000000      12.60000000       7.20000000      51.99610000       60        3
Ni       0.00000000      10.80000000      10.80000000      58.69340000       61        2
Co       0.00000000      12.60000000      12.60000000      58.93319400       62        1
Mn       1.80000000      10.80000000      12.60000000      54.93804400       63        5
Cr       1.80000000      12.60000000      10.80000000      51.99610000       64        3
Fe       3.60000000       0.00000000       0.00000000      55.84500000       65        4
Co       3.60000000       1.80000000       1.80000000      58.93319400       66        1
Mn       5.40000000       0.00000000       1.80000000      54.93804400       67        5
Co       5.40000000       1.80000000       0.00000000      58.93319400       68        1
Mn       3.60000000       0.00000000       3.60000000      54.93804400       69        5
Cr       3.60000000       1.80000000       5.40000000      51.99610000       70        3
Cr       5.40000000       0.00000000       5.40000000      51.99610000       71        3
Cr       5.40000000       1.80000000       3.60000000      51.99610000       72        3
Cr       3.60000000       0.00000000       7.20000000      51.99610000       73        3
Cr       3.60000000       1.80000000       9.00000000      51.99610000       74        3
Mn       5.40000000       0.00000000       9.00000000      54.93804400       75        5
Mn       5.40000000       1.80000000       7.20000000      54.93804400       76        5
Co       3.60000000       0.00000000      10.80000000      58.93319400       77        1
Fe       3.60000000       1.80000000      12.60000000      55.84500000       78        4
Fe       5.40000000       0.00000000      12.60000000      55.84500000       79        4
Fe       5.40000000       1.80000000      10.80000000      55.84500000       80        4
Co       3.60000000       3.60000000       0.00000000      58.93319400       81        1
Cr       3.60000000       5.40000000       1.80000000      51.99610000       82        3
Cr       5.40000000       3.60000000       1.80000000      51.99610000       83        3
Cr       5.40000000       5.40000000       0.00000000      51.99610000       84        3
Cr       3.60000000       3.60000000       3.60000000      51.99610000       85        3
Cr       3.60000000       5.40000000       5.40000000      51.99610000       86        3
Cr       5.40000000       3.60000000       5.40000000      51.99610000       87        3
Cr       5.40000000       5.40000000       3.60000000      51.99610000       88        3
Cr       3.60000000       3.60000000       7.20000000      51.99610000       89        3
Fe       3.60000000       5.40000000       9.00000000      55.84500000       90        4
Ni       5.40000000       3.60000000       9.00000000      58.69340000       91        2
Co       5.40000000       5.40000000       7.20000000      58.93319400       92        1
Co       3.60000000       3.60000000      10.80000000      58.93319400       93        1
Ni       3.60000000       5.40000000      12.60000000      58.69340000       94        2
Fe       5.40000000       3.60000000      12.60000000      55.84500000       95        4
Fe       5.40000000       5.40000000      10.80000000      55.84500000       96        4
Mn       3.60000000       7.20000000       0.00000000      54.93804400       97        5
Ni       3.60000000       9.00000000       1.80000000      58.69340000       98        2
Cr       5.40000000       7.20000000       1.80000000      51.99610000       99        3
Mn       5.40000000       9.00000000       0.00000000      54.93804400      100        5
Cr       3.60000000       7.20000000       3.60000000      51.99610000      101        3
Cr       3.60000000       9.00000000       5.40000000      51.99610000      102        3
Cr       5.40000000       7.20000000       5.40000000      51.99610000      103        3
Co       5.40000000       9.00000000       3.60000000      58.93319400      104        1
Cr       3.60000000       7.20000000       7.20000000      51.99610000      105        3
Ni       3.60000000       9.00000000       9.00000000      58.69340000      106        2
Co       5.40000000       7.20000000       9.00000000      58.93319400      107        1
Cr       5.40000000       9.00000000       7.20000000      51.99610000      108        3
Fe       3.60000000       7.20000000      10.80000000      55.84500000      109        4
Ni       3.60000000       9.00000000      12.60000000      58.69340000      110        2
Fe       5.40000000       7.20000000      12.60000000      55.84500000      111        4
Mn       5.40000000       9.00000000      10.80000000      54.93804400      112        5
Mn       3.60000000      10.80000000       0.00000000      54.93804400      113        5
Mn       3.60000000      12.60000000       1.80000000      54.93804400      114        5
Mn       5.40000000      10.80000000       1.80000000      54.93804400      115        5
Ni       5.40000000      12.60000000       0.00000000      58.69340000      116        2
Mn       3.60000000      10.80000000       3.60000000      54.93804400      117        5
Co       3.60000000      12.60000000       5.40000000      58.93319400      118        1
Cr       5.40000000      10.80000000       5.40000000      51.99610000      119        3
Ni       5.40000000      12.60000000       3.60000000      58.69340000      120        2
Cr       3.60000000      10.80000000       7.20000000      51.99610000      121        3
Cr       3.60000000      12.60000000       9.00000000      51.99610000      122        3
Cr       5.40000000      10.80000000       9.00000000      51.99610000      123        3
Cr       5.40000000      12.60000000       7.20000000      51.99610000      124        3
Cr       3.60000000      10.80000000      10.80000000      51.99610000      125        3
Co       3.60000000      12.60000000      12.60000000      58.93319400      126        1
Mn       5.40000000      10.80000000      12.60000000      54.93804400      127        5
Co       5.40000000      12.60000000      10.80000000      58.93319400      128        1
Fe       7.20000000       0.00000000       0.00000000      55.84500000      129        4
Ni       7.20000000       1.80000000       1.80000000      58.69340000      130        2
Mn       9.00000000       0.00000000       1.80000000      54.93804400      131        5
Mn       9.00000000       1.80000000       0.00000000      54.93804400      132        5
Mn       7.20000000       0.00000000       3.60000000      54.93804400      133        5
Mn       7.20000000       1.80000000       5.40000000      54.93804400      134        5
Ni       9.00000000       0.00000000       5.40000000      58.69340000      135        2
Fe       9.00000000       1.80000000       3.60000000      55.84500000      136        4
Mn       7.20000000       0.00000000       7.20000000      54.93804400      137        5
Ni       7.20000000       1.80000000       9.00000000      58.69340000      138        2
Ni       9.00000000       0.00000000       9.00000000      58.69340000      139        2
Mn       9.00000000       1.80000000       7.20000000      54.93804400      140        5
Mn       7.20000000       0.00000000      10.80000000      54.93804400      141        5
Ni       7.20000000       1.80000000      12.60000000      58.69340000      142        2
Mn       9.00000000       0.00000000      12.60000000      54.93804400      143        5
Mn       9.00000000       1.80000000      10.80000000      54.93804400      144        5
Co       7.20000000       3.60000000       0.00000000      58.93319400      145        1
Cr       7.20000000       5.40000000       1.80000000      51.99610000      146        3
Cr       9.00000000       3.60000000       1.80000000      51.99610000      147        3
Co       9.00000000       5.40000000       0.00000000      58.93319400      148        1
Cr       7.20000000       3.60000000       3.60000000      51.99610000      149        3
Cr       7.20000000       5.40000000       5.40000000      51.99610000      150        3
Ni       9.00000000       3.60000000       5.40000000      58.69340000      151        2
Co       9.00000000       5.40000000       3.60000000      58.93319400      152        1
Mn       7.20000000       3.60000000       7.20000000      54.93804400      153        5
Fe       7.20000000       5.40000000       9.00000000      55.84500000      154        4
Ni       9.00000000       3.60000000       9.00000000      58.69340000      155        2
Fe       9.00000000       5.40000000       7.20000000      55.84500000      156        4
Fe       7.20000000       3.60000000      10.80000000      55.84500000      157        4
Ni       7.20000000       5.40000000      12.60000000      58.69340000      158        2
Fe       9.00000000       3.60000000      12.60000000      55.84500000      159        4
Co       9.00000000       5.40000000      10.80000000      58.93319400      160        1
Mn       7.20000000       7.20000000       0.00000000      54.93804400      161        5
Ni       7.20000000       9.00000000       1.80000000      58.69340000      162        2
Fe       9.00000000       7.20000000       1.80000000      55.84500000      163        4
Mn       9.00000000       9.00000000       0.00000000      54.93804400      164        5
Co       7.20000000       7.20000000       3.60000000      58.93319400      165        1
Mn       7.20000000       9.00000000       5.40000000      54.93804400      166        5
Ni       9.00000000       7.20000000       5.40000000      58.69340000      167        2
Mn       9.00000000       9.00000000       3.60000000      54.93804400      168        5
Co       7.20000000       7.20000000       7.20000000      58.93319400      169        1
Ni       7.20000000       9.00000000       9.00000000      58.69340000      170        2
Ni       9.00000000       7.20000000       9.00000000      58.69340000      171        2
Mn       9.00000000       9.00000000       7.20000000      54.93804400      172        5
Fe       7.20000000       7.20000000      10.80000000      55.84500000      173        4
Ni       7.20000000       9.00000000      12.60000000      58.69340000      174        2
Fe       9.00000000       7.20000000      12.60000000      55.84500000      175        4
Mn       9.00000000       9.00000000      10.80000000      54.93804400      176        5
Mn       7.20000000      10.80000000       0.00000000      54.93804400      177        5
Ni       7.20000000      12.60000000       1.80000000      58.69340000      178        2
Mn       9.00000000      10.80000000       1.80000000      54.93804400      179        5
Mn       9.00000000      12.60000000       0.00000000      54.93804400      180        5
Mn       7.20000000      10.80000000       3.60000000      54.93804400      181        5
Mn       7.20000000      12.60000000       5.40000000      54.93804400      182        5
Ni       9.00000000      10.80000000       5.40000000      58.69340000      183        2
Mn       9.00000000      12.60000000       3.60000000      54.93804400      184        5
Mn       7.20000000      10.80000000       7.20000000      54.93804400      185        5
Ni       7.20000000      12.60000000       9.00000000      58.69340000      186        2
Mn       9.00000000      10.80000000       9.00000000      54.93804400      187        5
Mn       9.00000000      12.60000000       7.20000000      54.93804400      188        5
Mn       7.20000000      10.80000000      10.80000000      54.93804400      189        5
Ni       7.20000000      12.60000000      12.60000000      58.69340000      190        2
Mn       9.00000000      10.80000000      12.60000000      54.93804400      191        5
Mn       9.00000000      12.60000000      10.80000000      54.93804400      192        5
Ni      10.80000000       0.00000000       0.00000000      58.69340000      193        2
Ni      10.80000000       1.80000000       1.80000000      58.69340000      194        2
Mn      12.60000000       0.00000000       1.80000000      54.93804400      195        5
Fe      12.60000000       1.80000000       0.00000000      55.84500000      196        4
Mn      10.80000000       0.00000000       3.60000000      54.93804400      197        5
Ni      10.80000000       1.80000000       5.40000000      58.69340000      198        2
Mn      12.60000000       0.00000000       5.40000000      54.93804400      199        5
Mn      12.60000000       1.80000000       3.60000000      54.93804400      200        5
Ni      10.80000000       0.00000000       7.20000000      58.69340000      201        2
Co      10.80000000       1.80000000       9.00000000      58.93319400      202        1
Co      12.60000000       0.00000000       9.00000000      58.93319400      203        1
Fe      12.60000000       1.80000000       7.20000000      55.84500000      204        4
Fe      10.80000000       0.00000000      10.80000000      55.84500000      205        4
Ni      10.80000000       1.80000000      12.60000000      58.69340000      206        2
Fe      12.60000000       0.00000000      12.60000000      55.84500000      207        4
Co      12.60000000       1.80000000      10.80000000      58.93319400      208        1
Fe      10.80000000       3.60000000       0.00000000      55.84500000      209        4
Co      10.80000000       5.40000000       1.80000000      58.93319400      210        1
Mn      12.60000000       3.60000000       1.80000000      54.93804400      211        5
Co      12.60000000       5.40000000       0.00000000      58.93319400      212        1
Fe      10.80000000       3.60000000       3.60000000      55.84500000      213        4
Mn      10.80000000       5.40000000       5.40000000      54.93804400      214        5
Co      12.60000000       3.60000000       5.40000000      58.93319400      215        1
Co      12.60000000       5.40000000       3.60000000      58.93319400      216        1
Fe      10.80000000       3.60000000       7.20000000      55.84500000      217        4
Fe      10.80000000       5.40000000       9.00000000      55.84500000      218        4
Cr      12.60000000       3.60000000       9.00000000      51.99610000      219        3
Fe      12.60000000       5.40000000       7.20000000      55.84500000      220        4
Co      10.80000000       3.60000000      10.80000000      58.93319400      221        1
Fe      10.80000000       5.40000000      12.60000000      55.84500000      222        4
Fe      12.60000000       3.60000000      12.60000000      55.84500000      223        4
Fe      12.60000000       5.40000000      10.80000000      55.84500000      224        4
Fe      10.80000000       7.20000000       0.00000000      55.84500000      225        4
Ni      10.80000000       9.00000000       1.80000000      58.69340000      226        2
Cr      12.60000000       7.20000000       1.80000000      51.99610000      227        3
Mn      12.60000000       9.00000000       0.00000000      54.93804400      228        5
Fe      10.80000000       7.20000000       3.60000000      55.84500000      229        4
Mn      10.80000000       9.00000000       5.40000000      54.93804400      230        5
Co      12.60000000       7.20000000       5.40000000      58.93319400      231        1
Co      12.60000000       9.00000000       3.60000000      58.93319400      232        1
Mn      10.80000000       7.20000000       7.20000000      54.93804400      233        5
Mn      10.80000000       9.00000000       9.00000000      54.93804400      234        5
Fe      12.60000000       7.20000000       9.00000000      55.84500000      235        4
Ni      12.60000000       9.00000000       7.20000000      58.69340000      236        2
Ni      10.80000000       7.20000000      10.80000000      58.69340000      237        2
Mn      10.80000000       9.00000000      12.60000000      54.93804400      238        5
Co      12.60000000       7.20000000      12.60000000      58.93319400      239        1
Fe      12.60000000       9.00000000      10.80000000      55.84500000      240        4
Ni      10.80000000      10.80000000       0.00000000      58.69340000      241        2
Ni      10.80000000      12.60000000       1.80000000      58.69340000      242        2
Mn      12.60000000      10.80000000       1.80000000      54.93804400      243        5
Mn      12.60000000      12.60000000       0.00000000      54.93804400      244        5
Mn      10.80000000      10.80000000       3.60000000      54.93804400      245        5
Mn      10.80000000      12.60000000       5.40000000      54.93804400      246        5
Ni      12.60000000      10.80000000       5.40000000      58.69340000      247        2
Ni      12.60000000      12.60000000       3.60000000      58.69340000      248        2
Mn      10.80000000      10.80000000       7.20000000      54.93804400      249        5
Ni      10.80000000      12.60000000       9.00000000      58.69340000      250        2
Mn      12.60000000      10.80000000       9.00000000      54.93804400      251        5
Fe      12.60000000      12.60000000       7.20000000      55.84500000      252        4
Ni      10.80000000      10.80000000      10.80000000      58.69340000      253        2
Ni      10.80000000      12.60000000      12.60000000      58.69340000      254        2
Fe      12.60000000      10.80000000      12.60000000      55.84500000      255        4
Fe      12.60000000      12.60000000      10.80000000      55.84500000      256        4
