256
Lattice="14.4 0.0 0.0 0.0 14.4 0.0 0.0 0.0 14.4" Properties=species:S:1:pos:R:3:masses:R:1:id:I:1:type:I:1 comment="(written by ASE)" energy=-1024.45776939896 pbc="T T T"
Ni       0.00000000       0.00000000       0.00000000      58.69340000        1        2
Fe       0.00000000       1.80000000       1.80000000      55.84500000        2        4
Fe       1.80000000       0.00000000       1.80000000      55.84500000        3        4
Fe       1.80000000       1.80000000       0.00000000      55.84500000        4        4
Ni       0.00000000       0.00000000       3.60000000      58.69340000        5        2
Cr       0.00000000       1.80000000       5.40000000      51.99610000        6        3
Mn       1.80000000       0.00000000       5.40000000      54.93804400        7        5
Fe       1.80000000       1.80000000       3.60000000      55.84500000        8        4
Cr       0.00000000       0.00000000       7.20000000      51.99610000        9        3
Mn       0.00000000       1.80000000       9.00000000      54.93804400       10        5
Cr       1.80000000       0.00000000       9.00000000      51.99610000       11        3
Ni       1.80000000       1.80000000       7.20000000      58.69340000       12        2
Mn       0.00000000       0.00000000      10.80000000      54.93804400       13        5
Fe       0.00000000       1.80000000      12.60000000      55.84500000       14        4
Fe       1.80000000       0.00000000      12.60000000      55.84500000       15        4
Ni       1.80000000       1.80000000      10.80000000      58.69340000       16        2
Ni       0.00000000       3.60000000       0.00000000      58.69340000       17        2
Co       0.00000000       5.40000000       1.80000000      58.93319400       18        1
Fe       1.80000000       3.60000000       1.80000000      55.84500000       19        4
Ni       1.80000000       5.40000000       0.00000000      58.69340000       20        2
Mn       0.00000000       3.60000000       3.60000000      54.93804400       21        5
Cr       0.00000000       5.40000000       5.40000000      51.99610000       22        3
Ni       1.80000000       3.60000000       5.40000000      58.69340000       23        2
Mn       1.80000000       5.40000000       3.60000000      54.93804400       24        5
Ni       0.00000000       3.60000000       7.20000000      58.69340000       25        2
Ni       0.00000000       5.40000000       9.00000000      58.69340000       26        2
Fe       1.80000000       3.60000000       9.00000000      55.84500000       27        4
Cr       1.80000000       5.40000000       7.20000000      51.99610000       28        3
Fe       0.00000000       3.60000000      10.80000000      55.84500000       29        4
Fe       0.00000000       5.40000000      12.60000000      55.84500000       30        4
Fe       1.80000000       3.60000000      12.60000000      55.84500000       31        4
Fe       1.80000000       5.40000000      10.80000000      55.84500000       32        4
Fe       0.00000000       7.20000000       0.00000000      55.84500000       33        4
Fe       0.00000000       9.00000000       1.80000000      55.84500000       34        4
Co       1.80000000       7.20000000       1.80000000      58.93319400       35        1
Co       1.80000000       9.00000000       0.00000000      58.93319400       36        1
Co       0.00000000       7.20000000       3.60000000      58.93319400       37        1
Ni       0.00000000       9.00000000       5.40000000      58.69340000       38        2
Mn       1.80000000       7.20000000       5.40000000      54.93804400       39        5
Co       1.80000000       9.00000000       3.60000000      58.93319400       40        1
Cr       0.00000000       7.20000000       7.20000000      51.99610000       41        3
Cr       0.00000000       9.00000000       9.00000000      51.99610000       42        3
Mn       1.80000000       7.20000000       9.00000000      54.93804400       43        5
Cr       1.80000000       9.00000000       7.20000000      51.99610000       44        3
Ni       0.00000000       7.20000000      10.80000000      58.69340000       45        2
Fe       0.00000000       9.00000000      12.60000000      55.84500000       46        4
Ni       1.80000000       7.20000000      12.60000000      58.69340000       47        2
Cr       1.80000000       9.00000000      10.80000000      51.99610000       48        3
Ni       0.00000000      10.80000000       0.00000000      58.69340000       49        2
Cr       0.00000000      12.60000000       1.80000000      51.99610000       50        3
Fe       1.80000000      10.80000000       1.80000000      55.84500000       51        4
Ni       1.80000000      12.60000000       0.00000000      58.69340000       52        2
Ni       0.00000000      10.80000000       3.60000000      58.69340000       53        2
Ni       0.00000000      12.60000000       5.40000000      58.69340000       54        2
Cr       1.80000000      10.80000000       5.40000000      51.99610000       55        3
Cr       1.80000000      12.60000000       3.60000000      51.99610000       56        3
Cr       0.00000000      10.80000000       7.20000000      51.99610000       57        3
Cr       0.00000000      12.60000000       9.00000000      51.99610000       58        3
Mn       1.80000000      10.80000000       9.00000000      54.93804400       59        5
Ni       1.80000000      12.60000000       7.20000000      58.69340000       60        2
Ni       0.00000000      10.80000000      10.80000000      58.69340000       61        2
Cr       0.00000000      12.60000000      12.60000000      51.99610000       62        3
Cr       1.80000000      10.80000000      12.60000000      51.99610000       63        3
Cr       1.80000000      12.60000000      10.80000000      51.99610000       64        3
Fe       3.60000000       0.00000000       0.00000000      55.84500000       65        4
Fe       3.60000000       1.80000000       1.80000000      55.84500000       66        4
Mn       5.40000000       0.00000000       1.80000000      54.93804400       67        5
Fe       5.40000000       1.80000000       0.00000000      55.84500000       68        4
Ni       3.60000000       0.00000000       3.60000000      58.69340000       69        2
Fe       3.60000000       1.80000000       5.40000000      55.84500000       70        4
Cr       5.40000000       0.00000000       5.40000000      51.99610000       71        3
Fe       5.40000000       1.80000000       3.60000000      55.84500000       72        4
Cr       3.60000000       0.00000000       7.20000000      51.99610000       73        3
Ni       3.60000000       1.80000000       9.00000000      58.69340000       74        2
Cr       5.40000000       0.00000000       9.00000000      51.99610000       75        3
Ni       5.40000000       1.80000000       7.20000000      58.69340000       76        2
Mn       3.60000000       0.00000000      10.80000000      54.93804400       77        5
Fe       3.60000000       1.80000000      12.60000000      55.84500000       78        4
Co       5.40000000       0.00000000      12.60000000      58.93319400       79        1
Ni       5.40000000       1.80000000      10.80000000      58.69340000       80        2
Fe       3.60000000       3.60000000       0.00000000      55.84500000       81        4
Fe       3.60000000       5.40000000       1.80000000      55.84500000       82        4
Fe       5.40000000       3.60000000       1.80000000      55.84500000       83        4
Fe       5.40000000       5.40000000       0.00000000      55.84500000       84        4
Fe       3.60000000       3.60000000       3.60000000      55.84500000       85        4
Fe       3.60000000       5.40000000       5.40000000      55.84500000       86        4
Fe       5.40000000       3.60000000       5.40000000      55.84500000       87        4
Fe       5.40000000       5.40000000       3.60000000      55.84500000       88        4
Fe       3.60000000       3.60000000       7.20000000      55.84500000       89        4
Ni       3.60000000       5.40000000       9.00000000      58.69340000       90        2
Cr       5.40000000       3.60000000       9.00000000      51.99610000       91        3
Mn       5.40000000       5.40000000       7.20000000      54.93804400       92        5
Fe       3.60000000       3.60000000      10.80000000      55.84500000       93        4
Fe       3.60000000       5.40000000      12.60000000      55.84500000       94        4
Fe       5.40000000       3.60000000      12.60000000      55.84500000       95        4
Mn       5.40000000       5.40000000      10.80000000      54.93804400       96        5
Mn       3.60000000       7.20000000       0.00000000      54.93804400       97        5
Co       3.60000000       9.00000000       1.80000000      58.93319400       98        1
Mn       5.40000000       7.20000000       1.80000000      54.93804400       99        5
Co       5.40000000       9.00000000       0.00000000      58.93319400      100        1
Co       3.60000000       7.20000000       3.60000000      58.93319400      101        1
Mn       3.60000000       9.00000000       5.40000000      54.93804400      102        5
Co       5.40000000       7.20000000       5.40000000      58.93319400      103        1
Fe       5.40000000       9.00000000       3.60000000      55.84500000      104        4
Cr       3.60000000       7.20000000       7.20000000      51.99610000      105        3
Mn       3.60000000       9.00000000       9.00000000      54.93804400      106        5
Co       5.40000000       7.20000000       9.00000000      58.93319400      107        1
Co       5.40000000       9.00000000       7.20000000      58.93319400      108        1
Co       3.60000000       7.20000000      10.80000000      58.93319400      109        1
Co       3.60000000       9.00000000      12.60000000      58.93319400      110        1
Co       5.40000000       7.20000000      12.60000000      58.93319400      111        1
Mn       5.40000000       9.00000000      10.80000000      54.93804400      112        5
Ni       3.60000000      10.80000000       0.00000000      58.69340000      113        2
Fe       3.60000000      12.60000000       1.80000000      55.84500000      114        4
Co       5.40000000      10.80000000       1.80000000      58.93319400      115        1
Co       5.40000000      12.60000000       0.00000000      58.93319400      116        1
Ni       3.60000000      10.80000000       3.60000000      58.69340000      117        2
Cr       3.60000000      12.60000000       5.40000000      51.99610000      118        3
Ni       5.40000000      10.80000000       5.40000000      58.69340000      119        2
Cr       5.40000000      12.60000000       3.60000000      51.99610000      120        3
Mn       3.60000000      10.80000000       7.20000000      54.93804400      121        5
Mn       3.60000000      12.60000000       9.00000000      54.93804400      122        5
Mn       5.40000000      10.80000000       9.00000000      54.93804400      123        5
Mn       5.40000000      12.60000000       7.20000000      54.93804400      124        5
Mn       3.60000000      10.80000000      10.80000000      54.93804400      125        5
Ni       3.60000000      12.60000000      12.60000000      58.69340000      126        2
Co       5.40000000      10.80000000      12.60000000      58.93319400      127        1
Co       5.40000000      12.60000000      10.80000000      58.93319400      128        1
Co       7.20000000       0.00000000       0.00000000      58.93319400      129        1
Co       7.20000000       1.80000000       1.80000000      58.93319400      130        1
Mn       9.00000000       0.00000000       1.80000000      54.93804400      131        5
Co       9.00000000       1.80000000       0.00000000      58.93319400      132        1
Mn       7.20000000       0.00000000       3.60000000      54.93804400      133        5
Co       7.20000000       1.80000000       5.40000000      58.93319400      134        1
Co       9.00000000       0.00000000       5.40000000      58.93319400      135        1
Co       9.00000000       1.80000000       3.60000000      58.93319400      136        1
Mn       7.20000000       0.00000000       7.20000000      54.93804400      137        5
Cr       7.20000000       1.80000000       9.00000000      51.99610000      138        3
Mn       9.00000000       0.00000000       9.00000000      54.93804400      139        5
Mn       9.00000000       1.80000000       7.20000000      54.93804400      140        5
Mn       7.20000000       0.00000000      10.80000000      54.93804400      141        5
Co       7.20000000       1.80000000      12.60000000      58.93319400      142        1
Co       9.00000000       0.00000000      12.60000000      58.93319400      143        1
Co       9.00000000       1.80000000      10.80000000      58.93319400      144        1
Fe       7.20000000       3.60000000       0.00000000      55.84500000      145        4
Fe       7.20000000       5.40000000       1.80000000      55.84500000      146        4
Mn       9.00000000       3.60000000       1.80000000      54.93804400      147        5
Ni       9.00000000       5.40000000       0.00000000      58.69340000      148        2
Ni       7.20000000       3.60000000       3.60000000      58.69340000      149        2
Co       7.20000000       5.40000000       5.40000000      58.93319400      150        1
Co       9.00000000       3.60000000       5.40000000      58.93319400      151        1
Fe       9.00000000       5.40000000       3.60000000      55.84500000      152        4
Mn       7.20000000       3.60000000       7.20000000      54.93804400      153        5
Mn       7.20000000       5.40000000       9.00000000      54.93804400      154        5
Mn       9.00000000       3.60000000       9.00000000      54.93804400      155        5
Co       9.00000000       5.40000000       7.20000000      58.93319400      156        1
Mn       7.20000000       3.60000000      10.80000000      54.93804400      157        5
Ni       7.20000000       5.40000000      12.60000000      58.69340000      158        2
Co       9.00000000       3.60000000      12.60000000      58.93319400      159        1
Mn       9.00000000       5.40000000      10.80000000      54.93804400      160        5
Co       7.20000000       7.20000000       0.00000000      58.93319400      161        1
Fe       7.20000000       9.00000000       1.80000000      55.84500000      162        4
Fe       9.00000000       7.20000000       1.80000000      55.84500000      163        4
Co       9.00000000       9.00000000       0.00000000      58.93319400      164        1
Ni       7.20000000       7.20000000       3.60000000      58.69340000      165        2
Fe       7.20000000       9.00000000       5.40000000      55.84500000      166        4
Fe       9.00000000       7.20000000       5.40000000      55.84500000      167        4
Fe       9.00000000       9.00000000       3.60000000      55.84500000      168        4
Co       7.20000000       7.20000000       7.20000000      58.93319400      169        1
Co       7.20000000       9.00000000       9.00000000      58.93319400      170        1
Mn       9.00000000       7.20000000       9.00000000      54.93804400      171        5
Fe       9.00000000       9.00000000       7.20000000      55.84500000      172        4
Cr       7.20000000       7.20000000      10.80000000      51.99610000      173        3
Co       7.20000000       9.00000000      12.60000000      58.93319400      174        1
Co       9.00000000       7.20000000      12.60000000      58.93319400      175        1
Mn       9.00000000       9.00000000      10.80000000      54.93804400      176        5
Co       7.20000000      10.80000000       0.00000000      58.93319400      177        1
Co       7.20000000      12.60000000       1.80000000      58.93319400      178        1
Co       9.00000000      10.80000000       1.80000000      58.93319400      179        1
Co       9.00000000      12.60000000       0.00000000      58.93319400      180        1
Fe       7.20000000      10.80000000       3.60000000      55.84500000      181        4
Mn       7.20000000      12.60000000       5.40000000      54.93804400      182        5
Fe       9.00000000      10.80000000       5.40000000      55.84500000      183        4
Mn       9.00000000      12.60000000       3.60000000      54.93804400      184        5
Mn       7.20000000      10.80000000       7.20000000      54.93804400      185        5
Cr       7.20000000      12.60000000       9.00000000      51.99610000      186        3
Mn       9.00000000      10.80000000       9.00000000      54.93804400      187        5
Co       9.00000000      12.60000000       7.20000000      58.93319400      188        1
Co       7.20000000      10.80000000      10.80000000      58.93319400      189        1
Co       7.20000000      12.60000000      12.60000000      58.93319400      190        1
Co       9.00000000      10.80000000      12.60000000      58.93319400      191        1
Mn       9.00000000      12.60000000      10.80000000      54.93804400      192        5
Mn      10.80000000       0.00000000       0.00000000      54.93804400      193        5
Mn      10.80000000       1.80000000       1.80000000      54.93804400      194        5
Cr      12.60000000       0.00000000       1.80000000      51.99610000      195        3
Co      12.60000000       1.80000000       0.00000000      58.93319400      196        1
Mn      10.80000000       0.00000000       3.60000000      54.93804400      197        5
Mn      10.80000000       1.80000000       5.40000000      54.93804400      198        5
Cr      12.60000000       0.00000000       5.40000000      51.99610000      199        3
Cr      12.60000000       1.80000000       3.60000000      51.99610000      200        3
Mn      10.80000000       0.00000000       7.20000000      54.93804400      201        5
Mn      10.80000000       1.80000000       9.00000000      54.93804400      202        5
Mn      12.60000000       0.00000000       9.00000000      54.93804400      203        5
Mn      12.60000000       1.80000000       7.20000000      54.93804400      204        5
Mn      10.80000000       0.00000000      10.80000000      54.93804400      205        5
Mn      10.80000000       1.80000000      12.60000000      54.93804400      206        5
Mn      12.60000000       0.00000000      12.60000000      54.93804400      207        5
Mn      12.60000000       1.80000000      10.80000000      54.93804400      208        5
Cr      10.80000000       3.60000000       0.00000000      51.99610000      209        3
Ni      10.80000000       5.40000000       1.80000000      58.69340000      210        2
Cr      12.60000000       3.60000000       1.80000000      51.99610000      211        3
Ni      12.60000000       5.40000000       0.00000000      58.69340000      212        2
Cr      10.80000000       3.60000000       3.60000000      51.99610000      213        3
Ni      10.80000000       5.40000000       5.40000000      58.69340000      214        2
Mn      12.60000000       3.60000000       5.40000000      54.93804400      215        5
Cr      12.60000000       5.40000000       3.60000000      51.99610000      216        3
Cr      10.80000000       3.60000000       7.20000000      51.99610000      217        3
Cr      10.80000000       5.40000000       9.00000000      51.99610000      218        3
Mn      12.60000000       3.60000000       9.00000000      54.93804400      219        5
Cr      12.60000000       5.40000000       7.20000000      51.99610000      220        3
Co      10.80000000       3.60000000      10.80000000      58.93319400      221        1
Mn      10.80000000       5.40000000      12.60000000      54.93804400      222        5
Fe      12.60000000       3.60000000      12.60000000      55.84500000      223        4
Ni      12.60000000       5.40000000      10.80000000      58.69340000      224        2
Mn      10.80000000       7.20000000       0.00000000      54.93804400      225        5
Fe      10.80000000       9.00000000       1.80000000      55.84500000      226        4
Fe      12.60000000       7.20000000       1.80000000      55.84500000      227        4
Ni      12.60000000       9.00000000       0.00000000      58.69340000      228        2
Fe      10.80000000       7.20000000       3.60000000      55.84500000      229        4
Fe      10.80000000       9.00000000       5.40000000      55.84500000      230        4
Ni      12.60000000       7.20000000       5.40000000      58.69340000      231        2
Fe      12.60000000       9.00000000       3.60000000      55.84500000      232        4
Ni      10.80000000       7.20000000       7.20000000      58.69340000      233        2
Cr      10.80000000       9.00000000       9.00000000      51.99610000      234        3
Ni      12.60000000       7.20000000       9.00000000      58.69340000      235        2
Cr      12.60000000       9.00000000       7.20000000      51.99610000      236        3
Cr      10.80000000       7.20000000      10.80000000      51.99610000      237        3
Mn      10.80000000       9.00000000      12.60000000      54.93804400      238        5
Ni      12.60000000       7.20000000      12.60000000      58.69340000      239        2
Ni      12.60000000       9.00000000      10.80000000      58.69340000      240        2
Co      10.80000000      10.80000000       0.00000000      58.93319400      241        1
Mn      10.80000000      12.60000000       1.80000000      54.93804400      242        5
Ni      12.60000000      10.80000000       1.80000000      58.69340000      243        2
Cr      12.60000000      12.60000000       0.00000000      51.99610000      244        3
Ni      10.80000000      10.80000000       3.60000000      58.69340000      245        2
Cr      10.80000000      12.60000000       5.40000000      51.99610000      246        3
Ni      12.60000000      10.80000000       5.40000000      58.69340000      247        2
Cr      12.60000000      12.60000000       3.60000000      51.99610000      248        3
Ni      10.80000000      10.80000000       7.20000000      58.69340000      249        2
Cr      10.80000000      12.60000000       9.00000000      51.99610000      250        3
Mn      12.60000000      10.80000000       9.00000000      54.93804400      251        5
Ni      12.60000000      12.60000000       7.20000000      58.69340000      252        2
Cr      10.80000000      10.80000000      10.80000000      51.99610000      253        3
Mn      10.80000000      12.60000000      12.60000000      54.93804400      254        5
Cr      12.60000000      10.80000000      12.60000000      51.99610000      255        3
Cr      12.60000000      12.60000000      10.80000000      51.99610000      256        3
