256
Lattice="14.4 0.0 0.0 0.0 14.4 0.0 0.0 0.0 14.4" Properties=species:S:1:pos:R:3:masses:R:1:id:I:1:type:I:1 comment="(written by ASE)" energy=-1019.50230760596 pbc="T T T"
Fe       0.00000000       0.00000000       0.00000000      55.84500000        1        4
Fe       0.00000000       1.80000000       1.80000000      55.84500000        2        4
Ni       1.80000000       0.00000000       1.80000000      58.69340000        3        2
Fe       1.80000000       1.80000000       0.00000000      55.84500000        4        4
Ni       0.00000000       0.00000000       3.60000000      58.69340000        5        2
Cr       0.00000000       1.80000000       5.40000000      51.99610000        6        3
Cr       1.80000000       0.00000000       5.40000000      51.99610000        7        3
Cr       1.80000000       1.80000000       3.60000000      51.99610000        8        3
Cr       0.00000000       0.00000000       7.20000000      51.99610000        9        3
Cr       0.00000000       1.80000000       9.00000000      51.99610000       10        3
Co       1.80000000       0.00000000       9.00000000      58.93319400       11        1
Co       1.80000000       1.80000000       7.20000000      58.93319400       12        1
Ni       0.00000000       0.00000000      10.80000000      58.69340000       13        2
Mn       0.00000000       1.80000000      12.60000000      54.93804400       14        5
Ni       1.80000000       0.00000000      12.60000000      58.69340000       15        2
Fe       1.80000000       1.80000000      10.80000000      55.84500000       16        4
Mn       0.00000000       3.60000000       0.00000000      54.93804400       17        5
Fe       0.00000000       5.40000000       1.80000000      55.84500000       18        4
Co       1.80000000       3.60000000       1.80000000      58.93319400       19        1
Mn       1.80000000       5.40000000       0.00000000      54.93804400       20        5
Co       0.00000000       3.60000000       3.60000000      58.93319400       21        1
Cr       0.00000000       5.40000000       5.40000000      51.99610000       22        3
Cr       1.80000000       3.60000000       5.40000000      51.99610000       23        3
Cr       1.80000000       5.40000000       3.60000000      51.99610000       24        3
Co       0.00000000       3.60000000       7.20000000      58.93319400       25        1
Cr       0.00000000       5.40000000       9.00000000      51.99610000       26        3
Co       1.80000000       3.60000000       9.00000000      58.93319400       27        1
Cr       1.80000000       5.40000000       7.20000000      51.99610000       28        3
Co       0.00000000       3.60000000      10.80000000      58.93319400       29        1
Fe       0.00000000       5.40000000      12.60000000      55.84500000       30        4
Fe       1.80000000       3.60000000      12.60000000      55.84500000       31        4
Co       1.80000000       5.40000000      10.80000000      58.93319400       32        1
Mn       0.00000000       7.20000000       0.00000000      54.93804400       33        5
Co       0.00000000       9.00000000       1.80000000      58.93319400       34        1
Co       1.80000000       7.20000000       1.80000000      58.93319400       35        1
Co       1.80000000       9.00000000       0.00000000      58.93319400       36        1
Co       0.00000000       7.20000000       3.60000000      58.93319400       37        1
Cr       0.00000000       9.00000000       5.40000000      51.99610000       38        3
Co       1.80000000       7.20000000       5.40000000      58.93319400       39        1
Cr       1.80000000       9.00000000       3.60000000      51.99610000       40        3
Cr       0.00000000       7.20000000       7.20000000      51.99610000       41        3
Cr       0.00000000       9.00000000       9.00000000      51.99610000       42        3
Co       1.80000000       7.20000000       9.00000000      58.93319400       43        1
Cr       1.80000000       9.00000000       7.20000000      51.99610000       44        3
Cr       0.00000000       7.20000000      10.80000000      51.99610000       45        3
Co       0.00000000       9.00000000      12.60000000      58.93319400       46        1
Co       1.80000000       7.20000000      12.60000000      58.93319400       47        1
Cr       1.80000000       9.00000000      10.80000000      51.99610000       48        3
Co       0.00000000      10.80000000       0.00000000      58.93319400       49        1
Fe       0.00000000      12.60000000       1.80000000      55.84500000       50        4
Cr       1.80000000      10.80000000       1.80000000      51.99610000       51        3
Ni       1.80000000      12.60000000       0.00000000      58.69340000       52        2
Mn       0.00000000      10.80000000       3.60000000      54.93804400       53        5
Ni       0.00000000      12.60000000       5.40000000      58.69340000       54        2
Ni       1.80000000      10.80000000       5.40000000      58.69340000       55        2
Ni       1.80000000      12.60000000       3.60000000      58.69340000       56        2
Ni       0.00000000      10.80000000       7.20000000      58.69340000       57        2
Ni       0.00000000      12.60000000       9.00000000      58.69340000       58        2
Cr       1.80000000      10.80000000       9.00000000      51.99610000       59        3
Cr       1.80000000      12.60000000       7.20000000      51.99610000       60        3
Cr       0.00000000      10.80000000      10.80000000      51.99610000       61        3
Ni       0.00000000      12.60000000      12.60000000      58.69340000       62        2
Cr       1.80000000      10.80000000      12.60000000      51.99610000       63        3
Ni       1.80000000      12.60000000      10.80000000      58.69340000       64        2
Ni       3.60000000       0.00000000       0.00000000      58.69340000       65        2
Cr       3.60000000       1.80000000       1.80000000      51.99610000       66        3
Ni       5.40000000       0.00000000       1.80000000      58.69340000       67        2
Ni       5.40000000       1.80000000       0.00000000      58.69340000       68        2
Ni       3.60000000       0.00000000       3.60000000      58.69340000       69        2
Cr       3.60000000       1.80000000       5.40000000      51.99610000       70        3
Mn       5.40000000       0.00000000       5.40000000      54.93804400       71        5
Ni       5.40000000       1.80000000       3.60000000      58.69340000       72        2
Co       3.60000000       0.00000000       7.20000000      58.93319400       73        1
Fe       3.60000000       1.80000000       9.00000000      55.84500000       74        4
Fe       5.40000000       0.00000000       9.00000000      55.84500000       75        4
Mn       5.40000000       1.80000000       7.20000000      54.93804400       76        5
Co       3.60000000       0.00000000      10.80000000      58.93319400       77        1
Mn       3.60000000       1.80000000      12.60000000      54.93804400       78        5
Fe       5.40000000       0.00000000      12.60000000      55.84500000       79        4
Fe       5.40000000       1.80000000      10.80000000      55.84500000       80        4
Mn       3.60000000       3.60000000       0.00000000      54.93804400       81        5
Co       3.60000000       5.40000000       1.80000000      58.93319400       82        1
Cr       5.40000000       3.60000000       1.80000000      51.99610000       83        3
Co       5.40000000       5.40000000       0.00000000      58.93319400       84        1
Cr       3.60000000       3.60000000       3.60000000      51.99610000       85        3
Co       3.60000000       5.40000000       5.40000000      58.93319400       86        1
Cr       5.40000000       3.60000000       5.40000000      51.99610000       87        3
Cr       5.40000000       5.40000000       3.60000000      51.99610000       88        3
Co       3.60000000       3.60000000       7.20000000      58.93319400       89        1
Co       3.60000000       5.40000000       9.00000000      58.93319400       90        1
Fe       5.40000000       3.60000000       9.00000000      55.84500000       91        4
Mn       5.40000000       5.40000000       7.20000000      54.93804400       92        5
Mn       3.60000000       3.60000000      10.80000000      54.93804400       93        5
Mn       3.60000000       5.40000000      12.60000000      54.93804400       94        5
Fe       5.40000000       3.60000000      12.60000000      55.84500000       95        4
Mn       5.40000000       5.40000000      10.80000000      54.93804400       96        5
Cr       3.60000000       7.20000000       0.00000000      51.99610000       97        3
Cr       3.60000000       9.00000000       1.80000000      51.99610000       98        3
Cr       5.40000000       7.20000000       1.80000000      51.99610000       99        3
Cr       5.40000000       9.00000000       0.00000000      51.99610000      100        3
Cr       3.60000000       7.20000000       3.60000000      51.99610000      101        3
Ni       3.60000000       9.00000000       5.40000000      58.69340000      102        2
Cr       5.40000000       7.20000000       5.40000000      51.99610000      103        3
Cr       5.40000000       9.00000000       3.60000000      51.99610000      104        3
Ni       3.60000000       7.20000000       7.20000000      58.69340000      105        2
Cr       3.60000000       9.00000000       9.00000000      51.99610000      106        3
Co       5.40000000       7.20000000       9.00000000      58.93319400      107        1
Cr       5.40000000       9.00000000       7.20000000      51.99610000      108        3
Co       3.60000000       7.20000000      10.80000000      58.93319400      109        1
Cr       3.60000000       9.00000000      12.60000000      51.99610000      110        3
Fe       5.40000000       7.20000000      12.60000000      55.84500000      111        4
Co       5.40000000       9.00000000      10.80000000      58.93319400      112        1
Ni       3.60000000      10.80000000       0.00000000      58.69340000      113        2
Ni       3.60000000      12.60000000       1.80000000      58.69340000      114        2
Ni       5.40000000      10.80000000       1.80000000      58.69340000      115        2
Ni       5.40000000      12.60000000       0.00000000      58.69340000      116        2
Cr       3.60000000      10.80000000       3.60000000      51.99610000      117        3
Ni       3.60000000      12.60000000       5.40000000      58.69340000      118        2
Ni       5.40000000      10.80000000       5.40000000      58.69340000      119        2
Ni       5.40000000      12.60000000       3.60000000      58.69340000      120        2
Ni       3.60000000      10.80000000       7.20000000      58.69340000      121        2
Cr       3.60000000      12.60000000       9.00000000      51.99610000      122        3
Co       5.40000000      10.80000000       9.00000000      58.93319400      123        1
Co       5.40000000      12.60000000       7.20000000      58.93319400      124        1
Co       3.60000000      10.80000000      10.80000000      58.93319400      125        1
Ni       3.60000000      12.60000000      12.60000000      58.69340000      126        2
Co       5.40000000      10.80000000      12.60000000      58.93319400      127        1
Fe       5.40000000      12.60000000      10.80000000      55.84500000      128        4
Mn       7.20000000       0.00000000       0.00000000      54.93804400      129        5
Ni       7.20000000       1.80000000       1.80000000      58.69340000      130        2
Mn       9.00000000       0.00000000       1.80000000      54.93804400      131        5
Fe       9.00000000       1.80000000       0.00000000      55.84500000      132        4
Mn       7.20000000       0.00000000       3.60000000      54.93804400      133        5
Fe       7.20000000       1.80000000       5.40000000      55.84500000      134        4
Fe       9.00000000       0.00000000       5.40000000      55.84500000      135        4
Mn       9.00000000       1.80000000       3.60000000      54.93804400      136        5
Fe       7.20000000       0.00000000       7.20000000      55.84500000      137        4
Mn       7.20000000       1.80000000       9.00000000      54.93804400      138        5
Fe       9.00000000       0.00000000       9.00000000      55.84500000      139        4
Mn       9.00000000       1.80000000       7.20000000      54.93804400      140        5
Mn       7.20000000       0.00000000      10.80000000      54.93804400      141        5
Mn       7.20000000       1.80000000      12.60000000      54.93804400      142        5
Fe       9.00000000       0.00000000      12.60000000      55.84500000      143        4
Fe       9.00000000       1.80000000      10.80000000      55.84500000      144        4
Ni       7.20000000       3.60000000       0.00000000      58.69340000      145        2
Cr       7.20000000       5.40000000       1.80000000      51.99610000      146        3
Ni       9.00000000       3.60000000       1.80000000      58.69340000      147        2
Ni       9.00000000       5.40000000       0.00000000      58.69340000      148        2
Ni       7.20000000       3.60000000       3.60000000      58.69340000      149        2
Ni       7.20000000       5.40000000       5.40000000      58.69340000      150        2
Mn       9.00000000       3.60000000       5.40000000      54.93804400      151        5
Ni       9.00000000       5.40000000       3.60000000      58.69340000      152        2
Fe       7.20000000       3.60000000       7.20000000      55.84500000      153        4
Mn       7.20000000       5.40000000       9.00000000      54.93804400      154        5
Mn       9.00000000       3.60000000       9.00000000      54.93804400      155        5
Mn       9.00000000       5.40000000       7.20000000      54.93804400      156        5
Mn       7.20000000       3.60000000      10.80000000      54.93804400      157        5
Mn       7.20000000       5.40000000      12.60000000      54.93804400      158        5
Fe       9.00000000       3.60000000      12.60000000      55.84500000      159        4
Fe       9.00000000       5.40000000      10.80000000      55.84500000      160        4
Ni       7.20000000       7.20000000       0.00000000      58.69340000      161        2
Cr       7.20000000       9.00000000       1.80000000      51.99610000      162        3
Ni       9.00000000       7.20000000       1.80000000      58.69340000      163        2
Mn       9.00000000       9.00000000       0.00000000      54.93804400      164        5
Cr       7.20000000       7.20000000       3.60000000      51.99610000      165        3
Co       7.20000000       9.00000000       5.40000000      58.93319400      166        1
Ni       9.00000000       7.20000000       5.40000000      58.69340000      167        2
Cr       9.00000000       9.00000000       3.60000000      51.99610000      168        3
Co       7.20000000       7.20000000       7.20000000      58.93319400      169        1
Mn       7.20000000       9.00000000       9.00000000      54.93804400      170        5
Fe       9.00000000       7.20000000       9.00000000      55.84500000      171        4
Fe       9.00000000       9.00000000       7.20000000      55.84500000      172        4
Fe       7.20000000       7.20000000      10.80000000      55.84500000      173        4
Mn       7.20000000       9.00000000      12.60000000      54.93804400      174        5
Fe       9.00000000       7.20000000      12.60000000      55.84500000      175        4
Mn       9.00000000       9.00000000      10.80000000      54.93804400      176        5
Co       7.20000000      10.80000000       0.00000000      58.93319400      177        1
Co       7.20000000      12.60000000       1.80000000      58.93319400      178        1
Fe       9.00000000      10.80000000       1.80000000      55.84500000      179        4
Fe       9.00000000      12.60000000       0.00000000      55.84500000      180        4
Mn       7.20000000      10.80000000       3.60000000      54.93804400      181        5
Fe       7.20000000      12.60000000       5.40000000      55.84500000      182        4
Fe       9.00000000      10.80000000       5.40000000      55.84500000      183        4
Mn       9.00000000      12.60000000       3.60000000      54.93804400      184        5
Mn       7.20000000      10.80000000       7.20000000      54.93804400      185        5
Mn       7.20000000      12.60000000       9.00000000      54.93804400      186        5
Fe       9.00000000      10.80000000       9.00000000      55.84500000      187        4
Mn       9.00000000      12.60000000       7.20000000      54.93804400      188        5
Fe       7.20000000      10.80000000      10.80000000      55.84500000      189        4
Mn       7.20000000      12.60000000      12.60000000      54.93804400      190        5
Fe       9.00000000      10.80000000      12.60000000      55.84500000      191        4
Fe       9.00000000      12.60000000      10.80000000      55.84500000      192        4
Mn      10.80000000       0.00000000       0.00000000      54.93804400      193        5
Fe      10.80000000       1.80000000       1.80000000      55.84500000      194        4
Mn      12.60000000       0.00000000       1.80000000      54.93804400      195        5
Mn      12.60000000       1.80000000       0.00000000      54.93804400      196        5
Fe      10.80000000       0.00000000       3.60000000      55.84500000      197        4
Mn      10.80000000       1.80000000       5.40000000      54.93804400      198        5
Mn      12.60000000       0.00000000       5.40000000      54.93804400      199        5
Fe      12.60000000       1.80000000       3.60000000      55.84500000      200        4
Mn      10.80000000       0.00000000       7.20000000      54.93804400      201        5
Fe      10.80000000       1.80000000       9.00000000      55.84500000      202        4
Ni      12.60000000       0.00000000       9.00000000      58.69340000      203        2
Co      12.60000000       1.80000000       7.20000000      58.93319400      204        1
Mn      10.80000000       0.00000000      10.80000000      54.93804400      205        5
Mn      10.80000000       1.80000000      12.60000000      54.93804400      206        5
Fe      12.60000000       0.00000000      12.60000000      55.84500000      207        4
Co      12.60000000       1.80000000      10.80000000      58.93319400      208        1
Mn      10.80000000       3.60000000       0.00000000      54.93804400      209        5
Ni      10.80000000       5.40000000       1.80000000      58.69340000      210        2
Mn      12.60000000       3.60000000       1.80000000      54.93804400      211        5
Mn      12.60000000       5.40000000       0.00000000      54.93804400      212        5
Fe      10.80000000       3.60000000       3.60000000      55.84500000      213        4
Co      10.80000000       5.40000000       5.40000000      58.93319400      214        1
Co      12.60000000       3.60000000       5.40000000      58.93319400      215        1
Co      12.60000000       5.40000000       3.60000000      58.93319400      216        1
Fe      10.80000000       3.60000000       7.20000000      55.84500000      217        4
Mn      10.80000000       5.40000000       9.00000000      54.93804400      218        5
Co      12.60000000       3.60000000       9.00000000      58.93319400      219        1
Co      12.60000000       5.40000000       7.20000000      58.93319400      220        1
Mn      10.80000000       3.60000000      10.80000000      54.93804400      221        5
Mn      10.80000000       5.40000000      12.60000000      54.93804400      222        5
Fe      12.60000000       3.60000000      12.60000000      55.84500000      223        4
Co      12.60000000       5.40000000      10.80000000      58.93319400      224        1
Fe      10.80000000       7.20000000       0.00000000      55.84500000      225        4
Fe      10.80000000       9.00000000       1.80000000      55.84500000      226        4
Mn      12.60000000       7.20000000       1.80000000      54.93804400      227        5
Fe      12.60000000       9.00000000       0.00000000      55.84500000      228        4
Co      10.80000000       7.20000000       3.60000000      58.93319400      229        1
Co      10.80000000       9.00000000       5.40000000      58.93319400      230        1
Cr      12.60000000       7.20000000       5.40000000      51.99610000      231        3
Fe      12.60000000       9.00000000       3.60000000      55.84500000      232        4
Co      10.80000000       7.20000000       7.20000000      58.93319400      233        1
Mn      10.80000000       9.00000000       9.00000000      54.93804400      234        5
Cr      12.60000000       7.20000000       9.00000000      51.99610000      235        3
Cr      12.60000000       9.00000000       7.20000000      51.99610000      236        3
Fe      10.80000000       7.20000000      10.80000000      55.84500000      237        4
Mn      10.80000000       9.00000000      12.60000000      54.93804400      238        5
Mn      12.60000000       7.20000000      12.60000000      54.93804400      239        5
Co      12.60000000       9.00000000      10.80000000      58.93319400      240        1
Mn      10.80000000      10.80000000       0.00000000      54.93804400      241        5
Fe      10.80000000      12.60000000       1.80000000      55.84500000      242        4
Mn      12.60000000      10.80000000       1.80000000      54.93804400      243        5
Mn      12.60000000      12.60000000       0.00000000      54.93804400      244        5
Mn      10.80000000      10.80000000       3.60000000      54.93804400      245        5
Mn      10.80000000      12.60000000       5.40000000      54.93804400      246        5
Ni      12.60000000      10.80000000       5.40000000      58.69340000      247        2
Fe      12.60000000      12.60000000       3.60000000      55.84500000      248        4
Co      10.80000000      10.80000000       7.20000000      58.93319400      249        1
Ni      10.80000000      12.60000000       9.00000000      58.69340000      250        2
Ni      12.60000000      10.80000000       9.00000000      58.69340000      251        2
Ni      12.60000000      12.60000000       7.20000000      58.69340000      252        2
Ni      10.80000000      10.80000000      10.80000000      58.69340000      253        2
Mn      10.80000000      12.60000000      12.60000000      54.93804400      254        5
Co      12.60000000      10.80000000      12.60000000      58.93319400      255        1
Ni      12.60000000      12.60000000      10.80000000      58.69340000      256        2
