256
Lattice="14.4 0.0 0.0 0.0 14.4 0.0 0.0 0.0 14.4" Properties=species:S:1:pos:R:3:masses:R:1:id:I:1:type:I:1 comment="(written by ASE)" energy=-1023.87434106351 pbc="T T T"
Mn       0.00000000       0.00000000       0.00000000      54.93804400        1        5
Co       0.00000000       1.80000000       1.80000000      58.93319400        2        1
Cr       1.80000000       0.00000000       1.80000000      51.99610000        3        3
Ni       1.80000000       1.80000000       0.00000000      58.69340000        4        2
Mn       0.00000000       0.00000000       3.60000000      54.93804400        5        5
Cr       0.00000000       1.80000000       5.40000000      51.99610000        6        3
Co       1.80000000       0.00000000       5.40000000      58.93319400        7        1
Co       1.80000000       1.80000000       3.60000000      58.93319400        8        1
Cr       0.00000000       0.00000000       7.20000000      51.99610000        9        3
Co       0.00000000       1.80000000       9.00000000      58.93319400       10        1
Co       1.80000000       0.00000000       9.00000000      58.93319400       11        1
Co       1.80000000       1.80000000       7.20000000      58.93319400       12        1
Mn       0.00000000       0.00000000      10.80000000      54.93804400       13        5
Cr       0.00000000       1.80000000      12.60000000      51.99610000       14        3
Mn       1.80000000       0.00000000      12.60000000      54.93804400       15        5
Co       1.80000000       1.80000000      10.80000000      58.93319400       16        1
Mn       0.00000000       3.60000000       0.00000000      54.93804400       17        5
Co       0.00000000       5.40000000       1.80000000      58.93319400       18        1
Co       1.80000000       3.60000000       1.80000000      58.93319400       19        1
Cr       1.80000000       5.40000000       0.00000000      51.99610000       20        3
Mn       0.00000000       3.60000000       3.60000000      54.93804400       21        5
Mn       0.00000000       5.40000000       5.40000000      54.93804400       22        5
Ni       1.80000000       3.60000000       5.40000000      58.69340000       23        2
Cr       1.80000000       5.40000000       3.60000000      51.99610000       24        3
Mn       0.00000000       3.60000000       7.20000000      54.93804400       25        5
Co       0.00000000       5.40000000       9.00000000      58.93319400       26        1
Co       1.80000000       3.60000000       9.00000000      58.93319400       27        1
Ni       1.80000000       5.40000000       7.20000000      58.69340000       28        2
Co       0.00000000       3.60000000      10.80000000      58.93319400       29        1
Co       0.00000000       5.40000000      12.60000000      58.93319400       30        1
Co       1.80000000       3.60000000      12.60000000      58.93319400       31        1
Cr       1.80000000       5.40000000      10.80000000      51.99610000       32        3
Co       0.00000000       7.20000000       0.00000000      58.93319400       33        1
Mn       0.00000000       9.00000000       1.80000000      54.93804400       34        5
Co       1.80000000       7.20000000       1.80000000      58.93319400       35        1
Fe       1.80000000       9.00000000       0.00000000      55.84500000       36        4
Co       0.00000000       7.20000000       3.60000000      58.93319400       37        1
Mn       0.00000000       9.00000000       5.40000000      54.93804400       38        5
Fe       1.80000000       7.20000000       5.40000000      55.84500000       39        4
Cr       1.80000000       9.00000000       3.60000000      51.99610000       40        3
Cr       0.00000000       7.20000000       7.20000000      51.99610000       41        3
Co       0.00000000       9.00000000       9.00000000      58.93319400       42        1
Mn       1.80000000       7.20000000       9.00000000      54.93804400       43        5
Ni       1.80000000       9.00000000       7.20000000      58.69340000       44        2
Co       0.00000000       7.20000000      10.80000000      58.93319400       45        1
Mn       0.00000000       9.00000000      12.60000000      54.93804400       46        5
Co       1.80000000       7.20000000      12.60000000      58.93319400       47        1
Cr       1.80000000       9.00000000      10.80000000      51.99610000       48        3
Fe       0.00000000      10.80000000       0.00000000      55.84500000       49        4
Fe       0.00000000      12.60000000       1.80000000      55.84500000       50        4
Fe       1.80000000      10.80000000       1.80000000      55.84500000       51        4
Ni       1.80000000      12.60000000       0.00000000      58.69340000       52        2
Ni       0.00000000      10.80000000       3.60000000      58.69340000       53        2
Co       0.00000000      12.60000000       5.40000000      58.93319400       54        1
Co       1.80000000      10.80000000       5.40000000      58.93319400       55        1
Cr       1.80000000      12.60000000       3.60000000      51.99610000       56        3
Cr       0.00000000      10.80000000       7.20000000      51.99610000       57        3
Ni       0.00000000      12.60000000       9.00000000      58.69340000       58        2
Mn       1.80000000      10.80000000       9.00000000      54.93804400       59        5
Mn       1.80000000      12.60000000       7.20000000      54.93804400       60        5
Mn       0.00000000      10.80000000      10.80000000      54.93804400       61        5
Fe       0.00000000      12.60000000      12.60000000      55.84500000       62        4
Fe       1.80000000      10.80000000      12.60000000      55.84500000       63        4
Cr       1.80000000      12.60000000      10.80000000      51.99610000       64        3
Fe       3.60000000       0.00000000       0.00000000      55.84500000       65        4
Mn       3.60000000       1.80000000       1.80000000      54.93804400       66        5
Cr       5.40000000       0.00000000       1.80000000      51.99610000       67        3
Fe       5.40000000       1.80000000       0.00000000      55.84500000       68        4
Ni       3.60000000       0.00000000       3.60000000      58.69340000       69        2
Cr       3.60000000       1.80000000       5.40000000      51.99610000       70        3
Mn       5.40000000       0.00000000       5.40000000      54.93804400       71        5
Co       5.40000000       1.80000000       3.60000000      58.93319400       72        1
Co       3.60000000       0.00000000       7.20000000      58.93319400       73        1
Cr       3.60000000       1.80000000       9.00000000      51.99610000       74        3
Mn       5.40000000       0.00000000       9.00000000      54.93804400       75        5
Mn       5.40000000       1.80000000       7.20000000      54.93804400       76        5
Co       3.60000000       0.00000000      10.80000000      58.93319400       77        1
Ni       3.60000000       1.80000000      12.60000000      58.69340000       78        2
Cr       5.40000000       0.00000000      12.60000000      51.99610000       79        3
Mn       5.40000000       1.80000000      10.80000000      54.93804400       80        5
Mn       3.60000000       3.60000000       0.00000000      54.93804400       81        5
Mn       3.60000000       5.40000000       1.80000000      54.93804400       82        5
Cr       5.40000000       3.60000000       1.80000000      51.99610000       83        3
Fe       5.40000000       5.40000000       0.00000000      55.84500000       84        4
Ni       3.60000000       3.60000000       3.60000000      58.69340000       85        2
Fe       3.60000000       5.40000000       5.40000000      55.84500000       86        4
Fe       5.40000000       3.60000000       5.40000000      55.84500000       87        4
Fe       5.40000000       5.40000000       3.60000000      55.84500000       88        4
Mn       3.60000000       3.60000000       7.20000000      54.93804400       89        5
Ni       3.60000000       5.40000000       9.00000000      58.69340000       90        2
Ni       5.40000000       3.60000000       9.00000000      58.69340000       91        2
Mn       5.40000000       5.40000000       7.20000000      54.93804400       92        5
Mn       3.60000000       3.60000000      10.80000000      54.93804400       93        5
Mn       3.60000000       5.40000000      12.60000000      54.93804400       94        5
Cr       5.40000000       3.60000000      12.60000000      51.99610000       95        3
Fe       5.40000000       5.40000000      10.80000000      55.84500000       96        4
Ni       3.60000000       7.20000000       0.00000000      58.69340000       97        2
Mn       3.60000000       9.00000000       1.80000000      54.93804400       98        5
Cr       5.40000000       7.20000000       1.80000000      51.99610000       99        3
Fe       5.40000000       9.00000000       0.00000000      55.84500000      100        4
Ni       3.60000000       7.20000000       3.60000000      58.69340000      101        2
Mn       3.60000000       9.00000000       5.40000000      54.93804400      102        5
Fe       5.40000000       7.20000000       5.40000000      55.84500000      103        4
Fe       5.40000000       9.00000000       3.60000000      55.84500000      104        4
Fe       3.60000000       7.20000000       7.20000000      55.84500000      105        4
Fe       3.60000000       9.00000000       9.00000000      55.84500000      106        4
Fe       5.40000000       7.20000000       9.00000000      55.84500000      107        4
Fe       5.40000000       9.00000000       7.20000000      55.84500000      108        4
Fe       3.60000000       7.20000000      10.80000000      55.84500000      109        4
Fe       3.60000000       9.00000000      12.60000000      55.84500000      110        4
Fe       5.40000000       7.20000000      12.60000000      55.84500000      111        4
Fe       5.40000000       9.00000000      10.80000000      55.84500000      112        4
Ni       3.60000000      10.80000000       0.00000000      58.69340000      113        2
Mn       3.60000000      12.60000000       1.80000000      54.93804400      114        5
Fe       5.40000000      10.80000000       1.80000000      55.84500000      115        4
Ni       5.40000000      12.60000000       0.00000000      58.69340000      116        2
Ni       3.60000000      10.80000000       3.60000000      58.69340000      117        2
Mn       3.60000000      12.60000000       5.40000000      54.93804400      118        5
Fe       5.40000000      10.80000000       5.40000000      55.84500000      119        4
Fe       5.40000000      12.60000000       3.60000000      55.84500000      120        4
Ni       3.60000000      10.80000000       7.20000000      58.69340000      121        2
Cr       3.60000000      12.60000000       9.00000000      51.99610000      122        3
Mn       5.40000000      10.80000000       9.00000000      54.93804400      123        5
Cr       5.40000000      12.60000000       7.20000000      51.99610000      124        3
Ni       3.60000000      10.80000000      10.80000000      58.69340000      125        2
Mn       3.60000000      12.60000000      12.60000000      54.93804400      126        5
Fe       5.40000000      10.80000000      12.60000000      55.84500000      127        4
Cr       5.40000000      12.60000000      10.80000000      51.99610000      128        3
Mn       7.20000000       0.00000000       0.00000000      54.93804400      129        5
Ni       7.20000000       1.80000000       1.80000000      58.69340000      130        2
Co       9.00000000       0.00000000       1.80000000      58.93319400      131        1
Cr       9.00000000       1.80000000       0.00000000      51.99610000      132        3
Cr       7.20000000       0.00000000       3.60000000      51.99610000      133        3
Ni       7.20000000       1.80000000       5.40000000      58.69340000      134        2
Ni       9.00000000       0.00000000       5.40000000      58.69340000      135        2
Mn       9.00000000       1.80000000       3.60000000      54.93804400      136        5
Co       7.20000000       0.00000000       7.20000000      58.93319400      137        1
Cr       7.20000000       1.80000000       9.00000000      51.99610000      138        3
Cr       9.00000000       0.00000000       9.00000000      51.99610000      139        3
Mn       9.00000000       1.80000000       7.20000000      54.93804400      140        5
Ni       7.20000000       0.00000000      10.80000000      58.69340000      141        2
Ni       7.20000000       1.80000000      12.60000000      58.69340000      142        2
Fe       9.00000000       0.00000000      12.60000000      55.84500000      143        4
Mn       9.00000000       1.80000000      10.80000000      54.93804400      144        5
Mn       7.20000000       3.60000000       0.00000000      54.93804400      145        5
Ni       7.20000000       5.40000000       1.80000000      58.69340000      146        2
Co       9.00000000       3.60000000       1.80000000      58.93319400      147        1
Mn       9.00000000       5.40000000       0.00000000      54.93804400      148        5
Fe       7.20000000       3.60000000       3.60000000      55.84500000      149        4
Fe       7.20000000       5.40000000       5.40000000      55.84500000      150        4
Ni       9.00000000       3.60000000       5.40000000      58.69340000      151        2
Mn       9.00000000       5.40000000       3.60000000      54.93804400      152        5
Ni       7.20000000       3.60000000       7.20000000      58.69340000      153        2
Fe       7.20000000       5.40000000       9.00000000      55.84500000      154        4
Cr       9.00000000       3.60000000       9.00000000      51.99610000      155        3
Mn       9.00000000       5.40000000       7.20000000      54.93804400      156        5
Mn       7.20000000       3.60000000      10.80000000      54.93804400      157        5
Fe       7.20000000       5.40000000      12.60000000      55.84500000      158        4
Ni       9.00000000       3.60000000      12.60000000      58.69340000      159        2
Ni       9.00000000       5.40000000      10.80000000      58.69340000      160        2
Fe       7.20000000       7.20000000       0.00000000      55.84500000      161        4
Fe       7.20000000       9.00000000       1.80000000      55.84500000      162        4
Fe       9.00000000       7.20000000       1.80000000      55.84500000      163        4
Fe       9.00000000       9.00000000       0.00000000      55.84500000      164        4
Fe       7.20000000       7.20000000       3.60000000      55.84500000      165        4
Fe       7.20000000       9.00000000       5.40000000      55.84500000      166        4
Ni       9.00000000       7.20000000       5.40000000      58.69340000      167        2
Mn       9.00000000       9.00000000       3.60000000      54.93804400      168        5
Fe       7.20000000       7.20000000       7.20000000      55.84500000      169        4
Fe       7.20000000       9.00000000       9.00000000      55.84500000      170        4
Cr       9.00000000       7.20000000       9.00000000      51.99610000      171        3
Mn       9.00000000       9.00000000       7.20000000      54.93804400      172        5
Fe       7.20000000       7.20000000      10.80000000      55.84500000      173        4
Fe       7.20000000       9.00000000      12.60000000      55.84500000      174        4
Ni       9.00000000       7.20000000      12.60000000      58.69340000      175        2
Ni       9.00000000       9.00000000      10.80000000      58.69340000      176        2
Fe       7.20000000      10.80000000       0.00000000      55.84500000      177        4
Ni       7.20000000      12.60000000       1.80000000      58.69340000      178        2
Cr       9.00000000      10.80000000       1.80000000      51.99610000      179        3
Cr       9.00000000      12.60000000       0.00000000      51.99610000      180        3
Mn       7.20000000      10.80000000       3.60000000      54.93804400      181        5
Ni       7.20000000      12.60000000       5.40000000      58.69340000      182        2
Ni       9.00000000      10.80000000       5.40000000      58.69340000      183        2
Mn       9.00000000      12.60000000       3.60000000      54.93804400      184        5
Fe       7.20000000      10.80000000       7.20000000      55.84500000      185        4
Ni       7.20000000      12.60000000       9.00000000      58.69340000      186        2
Fe       9.00000000      10.80000000       9.00000000      55.84500000      187        4
Mn       9.00000000      12.60000000       7.20000000      54.93804400      188        5
Fe       7.20000000      10.80000000      10.80000000      55.84500000      189        4
Mn       7.20000000      12.60000000      12.60000000      54.93804400      190        5
Fe       9.00000000      10.80000000      12.60000000      55.84500000      191        4
Fe       9.00000000      12.60000000      10.80000000      55.84500000      192        4
Mn      10.80000000       0.00000000       0.00000000      54.93804400      193        5
Co      10.80000000       1.80000000       1.80000000      58.93319400      194        1
Cr      12.60000000       0.00000000       1.80000000      51.99610000      195        3
Co      12.60000000       1.80000000       0.00000000      58.93319400      196        1
Cr      10.80000000       0.00000000       3.60000000      51.99610000      197        3
Cr      10.80000000       1.80000000       5.40000000      51.99610000      198        3
Co      12.60000000       0.00000000       5.40000000      58.93319400      199        1
Mn      12.60000000       1.80000000       3.60000000      54.93804400      200        5
Co      10.80000000       0.00000000       7.20000000      58.93319400      201        1
Cr      10.80000000       1.80000000       9.00000000      51.99610000      202        3
Ni      12.60000000       0.00000000       9.00000000      58.69340000      203        2
Mn      12.60000000       1.80000000       7.20000000      54.93804400      204        5
Ni      10.80000000       0.00000000      10.80000000      58.69340000      205        2
Cr      10.80000000       1.80000000      12.60000000      51.99610000      206        3
Ni      12.60000000       0.00000000      12.60000000      58.69340000      207        2
Mn      12.60000000       1.80000000      10.80000000      54.93804400      208        5
Co      10.80000000       3.60000000       0.00000000      58.93319400      209        1
Co      10.80000000       5.40000000       1.80000000      58.93319400      210        1
Co      12.60000000       3.60000000       1.80000000      58.93319400      211        1
Cr      12.60000000       5.40000000       0.00000000      51.99610000      212        3
Cr      10.80000000       3.60000000       3.60000000      51.99610000      213        3
Mn      10.80000000       5.40000000       5.40000000      54.93804400      214        5
Ni      12.60000000       3.60000000       5.40000000      58.69340000      215        2
Cr      12.60000000       5.40000000       3.60000000      51.99610000      216        3
Co      10.80000000       3.60000000       7.20000000      58.93319400      217        1
Co      10.80000000       5.40000000       9.00000000      58.93319400      218        1
Co      12.60000000       3.60000000       9.00000000      58.93319400      219        1
Co      12.60000000       5.40000000       7.20000000      58.93319400      220        1
Mn      10.80000000       3.60000000      10.80000000      54.93804400      221        5
Cr      10.80000000       5.40000000      12.60000000      51.99610000      222        3
Co      12.60000000       3.60000000      12.60000000      58.93319400      223        1
Co      12.60000000       5.40000000      10.80000000      58.93319400      224        1
Ni      10.80000000       7.20000000       0.00000000      58.69340000      225        2
Ni      10.80000000       9.00000000       1.80000000      58.69340000      226        2
Mn      12.60000000       7.20000000       1.80000000      54.93804400      227        5
Cr      12.60000000       9.00000000       0.00000000      51.99610000      228        3
Cr      10.80000000       7.20000000       3.60000000      51.99610000      229        3
Co      10.80000000       9.00000000       5.40000000      58.93319400      230        1
Co      12.60000000       7.20000000       5.40000000      58.93319400      231        1
Cr      12.60000000       9.00000000       3.60000000      51.99610000      232        3
Co      10.80000000       7.20000000       7.20000000      58.93319400      233        1
Cr      10.80000000       9.00000000       9.00000000      51.99610000      234        3
Co      12.60000000       7.20000000       9.00000000      58.93319400      235        1
Co      12.60000000       9.00000000       7.20000000      58.93319400      236        1
Mn      10.80000000       7.20000000      10.80000000      54.93804400      237        5
Mn      10.80000000       9.00000000      12.60000000      54.93804400      238        5
Co      12.60000000       7.20000000      12.60000000      58.93319400      239        1
Cr      12.60000000       9.00000000      10.80000000      51.99610000      240        3
Mn      10.80000000      10.80000000       0.00000000      54.93804400      241        5
Mn      10.80000000      12.60000000       1.80000000      54.93804400      242        5
Ni      12.60000000      10.80000000       1.80000000      58.69340000      243        2
Ni      12.60000000      12.60000000       0.00000000      58.69340000      244        2
Ni      10.80000000      10.80000000       3.60000000      58.69340000      245        2
Cr      10.80000000      12.60000000       5.40000000      51.99610000      246        3
Co      12.60000000      10.80000000       5.40000000      58.93319400      247        1
Mn      12.60000000      12.60000000       3.60000000      54.93804400      248        5
Cr      10.80000000      10.80000000       7.20000000      51.99610000      249        3
Mn      10.80000000      12.60000000       9.00000000      54.93804400      250        5
Co      12.60000000      10.80000000       9.00000000      58.93319400      251        1
Mn      12.60000000      12.60000000       7.20000000      54.93804400      252        5
Fe      10.80000000      10.80000000      10.80000000      55.84500000      253        4
Fe      10.80000000      12.60000000      12.60000000      55.84500000      254        4
Ni      12.60000000      10.80000000      12.60000000      58.69340000      255        2
Fe      12.60000000      12.60000000      10.80000000      55.84500000      256        4
