256
Lattice="14.4 0.0 0.0 0.0 14.4 0.0 0.0 0.0 14.4" Properties=species:S:1:pos:R:3:masses:R:1:id:I:1:type:I:1 comment="(written by ASE)" energy=-1024.4971138502 pbc="T T T"
Fe       0.00000000       0.00000000       0.00000000      55.84500000        1        4
Mn       0.00000000       1.80000000       1.80000000      54.93804400        2        5
Cr       1.80000000       0.00000000       1.80000000      51.99610000        3        3
Ni       1.80000000       1.80000000       0.00000000      58.69340000        4        2
Ni       0.00000000       0.00000000       3.60000000      58.69340000        5        2
Mn       0.00000000       1.80000000       5.40000000      54.93804400        6        5
Cr       1.80000000       0.00000000       5.40000000      51.99610000        7        3
Mn       1.80000000       1.80000000       3.60000000      54.93804400        8        5
Fe       0.00000000       0.00000000       7.20000000      55.84500000        9        4
Co       0.00000000       1.80000000       9.00000000      58.93319400       10        1
Mn       1.80000000       0.00000000       9.00000000      54.93804400       11        5
Ni       1.80000000       1.80000000       7.20000000      58.69340000       12        2
Cr       0.00000000       0.00000000      10.80000000      51.99610000       13        3
Mn       0.00000000       1.80000000      12.60000000      54.93804400       14        5
Fe       1.80000000       0.00000000      12.60000000      55.84500000       15        4
Fe       1.80000000       1.80000000      10.80000000      55.84500000       16        4
Fe       0.00000000       3.60000000       0.00000000      55.84500000       17        4
Cr       0.00000000       5.40000000       1.80000000      51.99610000       18        3
Fe       1.80000000       3.60000000       1.80000000      55.84500000       19        4
Mn       1.80000000       5.40000000       0.00000000      54.93804400       20        5
Ni       0.00000000       3.60000000       3.60000000      58.69340000       21        2
Co       0.00000000       5.40000000       5.40000000      58.93319400       22        1
Cr       1.80000000       3.60000000       5.40000000      51.99610000       23        3
Mn       1.80000000       5.40000000       3.60000000      54.93804400       24        5
Fe       0.00000000       3.60000000       7.20000000      55.84500000       25        4
Co       0.00000000       5.40000000       9.00000000      58.93319400       26        1
Ni       1.80000000       3.60000000       9.00000000      58.69340000       27        2
Co       1.80000000       5.40000000       7.20000000      58.93319400       28        1
Mn       0.00000000       3.60000000      10.80000000      54.93804400       29        5
Ni       0.00000000       5.40000000      12.60000000      58.69340000       30        2
Cr       1.80000000       3.60000000      12.60000000      51.99610000       31        3
Fe       1.80000000       5.40000000      10.80000000      55.84500000       32        4
Fe       0.00000000       7.20000000       0.00000000      55.84500000       33        4
Mn       0.00000000       9.00000000       1.80000000      54.93804400       34        5
Ni       1.80000000       7.20000000       1.80000000      58.69340000       35        2
Cr       1.80000000       9.00000000       0.00000000      51.99610000       36        3
Fe       0.00000000       7.20000000       3.60000000      55.84500000       37        4
Ni       0.00000000       9.00000000       5.40000000      58.69340000       38        2
Ni       1.80000000       7.20000000       5.40000000      58.69340000       39        2
Cr       1.80000000       9.00000000       3.60000000      51.99610000       40        3
Co       0.00000000       7.20000000       7.20000000      58.93319400       41        1
Co       0.00000000       9.00000000       9.00000000      58.93319400       42        1
Co       1.80000000       7.20000000       9.00000000      58.93319400       43        1
Fe       1.80000000       9.00000000       7.20000000      55.84500000       44        4
Ni       0.00000000       7.20000000      10.80000000      58.69340000       45        2
Co       0.00000000       9.00000000      12.60000000      58.93319400       46        1
Co       1.80000000       7.20000000      12.60000000      58.93319400       47        1
Co       1.80000000       9.00000000      10.80000000      58.93319400       48        1
Fe       0.00000000      10.80000000       0.00000000      55.84500000       49        4
Mn       0.00000000      12.60000000       1.80000000      54.93804400       50        5
Cr       1.80000000      10.80000000       1.80000000      51.99610000       51        3
Ni       1.80000000      12.60000000       0.00000000      58.69340000       52        2
Fe       0.00000000      10.80000000       3.60000000      55.84500000       53        4
Mn       0.00000000      12.60000000       5.40000000      54.93804400       54        5
Mn       1.80000000      10.80000000       5.40000000      54.93804400       55        5
Fe       1.80000000      12.60000000       3.60000000      55.84500000       56        4
Co       0.00000000      10.80000000       7.20000000      58.93319400       57        1
Fe       0.00000000      12.60000000       9.00000000      55.84500000       58        4
Co       1.80000000      10.80000000       9.00000000      58.93319400       59        1
Ni       1.80000000      12.60000000       7.20000000      58.69340000       60        2
Co       0.00000000      10.80000000      10.80000000      58.93319400       61        1
Mn       0.00000000      12.60000000      12.60000000      54.93804400       62        5
Co       1.80000000      10.80000000      12.60000000      58.93319400       63        1
Ni       1.80000000      12.60000000      10.80000000      58.69340000       64        2
Mn       3.60000000       0.00000000       0.00000000      54.93804400       65        5
Mn       3.60000000       1.80000000       1.80000000      54.93804400       66        5
Cr       5.40000000       0.00000000       1.80000000      51.99610000       67        3
Fe       5.40000000       1.80000000       0.00000000      55.84500000       68        4
Ni       3.60000000       0.00000000       3.60000000      58.69340000       69        2
Mn       3.60000000       1.80000000       5.40000000      54.93804400       70        5
Fe       5.40000000       0.00000000       5.40000000      55.84500000       71        4
Fe       5.40000000       1.80000000       3.60000000      55.84500000       72        4
Fe       3.60000000       0.00000000       7.20000000      55.84500000       73        4
Cr       3.60000000       1.80000000       9.00000000      51.99610000       74        3
Ni       5.40000000       0.00000000       9.00000000      58.69340000       75        2
Mn       5.40000000       1.80000000       7.20000000      54.93804400       76        5
Mn       3.60000000       0.00000000      10.80000000      54.93804400       77        5
Cr       3.60000000       1.80000000      12.60000000      51.99610000       78        3
Ni       5.40000000       0.00000000      12.60000000      58.69340000       79        2
Fe       5.40000000       1.80000000      10.80000000      55.84500000       80        4
Mn       3.60000000       3.60000000       0.00000000      54.93804400       81        5
Cr       3.60000000       5.40000000       1.80000000      51.99610000       82        3
Mn       5.40000000       3.60000000       1.80000000      54.93804400       83        5
Fe       5.40000000       5.40000000       0.00000000      55.84500000       84        4
Ni       3.60000000       3.60000000       3.60000000      58.69340000       85        2
Mn       3.60000000       5.40000000       5.40000000      54.93804400       86        5
Cr       5.40000000       3.60000000       5.40000000      51.99610000       87        3
Mn       5.40000000       5.40000000       3.60000000      54.93804400       88        5
Fe       3.60000000       3.60000000       7.20000000      55.84500000       89        4
Cr       3.60000000       5.40000000       9.00000000      51.99610000       90        3
Ni       5.40000000       3.60000000       9.00000000      58.69340000       91        2
Mn       5.40000000       5.40000000       7.20000000      54.93804400       92        5
Mn       3.60000000       3.60000000      10.80000000      54.93804400       93        5
Ni       3.60000000       5.40000000      12.60000000      58.69340000       94        2
Ni       5.40000000       3.60000000      12.60000000      58.69340000       95        2
Co       5.40000000       5.40000000      10.80000000      58.93319400       96        1
Mn       3.60000000       7.20000000       0.00000000      54.93804400       97        5
Mn       3.60000000       9.00000000       1.80000000      54.93804400       98        5
Fe       5.40000000       7.20000000       1.80000000      55.84500000       99        4
Cr       5.40000000       9.00000000       0.00000000      51.99610000      100        3
Fe       3.60000000       7.20000000       3.60000000      55.84500000      101        4
Cr       3.60000000       9.00000000       5.40000000      51.99610000      102        3
Ni       5.40000000       7.20000000       5.40000000      58.69340000      103        2
Cr       5.40000000       9.00000000       3.60000000      51.99610000      104        3
Fe       3.60000000       7.20000000       7.20000000      55.84500000      105        4
Co       3.60000000       9.00000000       9.00000000      58.93319400      106        1
Mn       5.40000000       7.20000000       9.00000000      54.93804400      107        5
Mn       5.40000000       9.00000000       7.20000000      54.93804400      108        5
Ni       3.60000000       7.20000000      10.80000000      58.69340000      109        2
Ni       3.60000000       9.00000000      12.60000000      58.69340000      110        2
Co       5.40000000       7.20000000      12.60000000      58.93319400      111        1
Co       5.40000000       9.00000000      10.80000000      58.93319400      112        1
Mn       3.60000000      10.80000000       0.00000000      54.93804400      113        5
Mn       3.60000000      12.60000000       1.80000000      54.93804400      114        5
Cr       5.40000000      10.80000000       1.80000000      51.99610000      115        3
Fe       5.40000000      12.60000000       0.00000000      55.84500000      116        4
Fe       3.60000000      10.80000000       3.60000000      55.84500000      117        4
Fe       3.60000000      12.60000000       5.40000000      55.84500000      118        4
Mn       5.40000000      10.80000000       5.40000000      54.93804400      119        5
Ni       5.40000000      12.60000000       3.60000000      58.69340000      120        2
Cr       3.60000000      10.80000000       7.20000000      51.99610000      121        3
Fe       3.60000000      12.60000000       9.00000000      55.84500000      122        4
Fe       5.40000000      10.80000000       9.00000000      55.84500000      123        4
Co       5.40000000      12.60000000       7.20000000      58.93319400      124        1
Co       3.60000000      10.80000000      10.80000000      58.93319400      125        1
Cr       3.60000000      12.60000000      12.60000000      51.99610000      126        3
Cr       5.40000000      10.80000000      12.60000000      51.99610000      127        3
Mn       5.40000000      12.60000000      10.80000000      54.93804400      128        5
Mn       7.20000000       0.00000000       0.00000000      54.93804400      129        5
Ni       7.20000000       1.80000000       1.80000000      58.69340000      130        2
Cr       9.00000000       0.00000000       1.80000000      51.99610000      131        3
Ni       9.00000000       1.80000000       0.00000000      58.69340000      132        2
Mn       7.20000000       0.00000000       3.60000000      54.93804400      133        5
Ni       7.20000000       1.80000000       5.40000000      58.69340000      134        2
Ni       9.00000000       0.00000000       5.40000000      58.69340000      135        2
Co       9.00000000       1.80000000       3.60000000      58.93319400      136        1
Mn       7.20000000       0.00000000       7.20000000      54.93804400      137        5
Cr       7.20000000       1.80000000       9.00000000      51.99610000      138        3
Fe       9.00000000       0.00000000       9.00000000      55.84500000      139        4
Co       9.00000000       1.80000000       7.20000000      58.93319400      140        1
Cr       7.20000000       0.00000000      10.80000000      51.99610000      141        3
Cr       7.20000000       1.80000000      12.60000000      51.99610000      142        3
Fe       9.00000000       0.00000000      12.60000000      55.84500000      143        4
Mn       9.00000000       1.80000000      10.80000000      54.93804400      144        5
Cr       7.20000000       3.60000000       0.00000000      51.99610000      145        3
Ni       7.20000000       5.40000000       1.80000000      58.69340000      146        2
Co       9.00000000       3.60000000       1.80000000      58.93319400      147        1
Fe       9.00000000       5.40000000       0.00000000      55.84500000      148        4
Co       7.20000000       3.60000000       3.60000000      58.93319400      149        1
Cr       7.20000000       5.40000000       5.40000000      51.99610000      150        3
Co       9.00000000       3.60000000       5.40000000      58.93319400      151        1
Fe       9.00000000       5.40000000       3.60000000      55.84500000      152        4
Mn       7.20000000       3.60000000       7.20000000      54.93804400      153        5
Cr       7.20000000       5.40000000       9.00000000      51.99610000      154        3
Fe       9.00000000       3.60000000       9.00000000      55.84500000      155        4
Ni       9.00000000       5.40000000       7.20000000      58.69340000      156        2
Mn       7.20000000       3.60000000      10.80000000      54.93804400      157        5
Mn       7.20000000       5.40000000      12.60000000      54.93804400      158        5
Cr       9.00000000       3.60000000      12.60000000      51.99610000      159        3
Mn       9.00000000       5.40000000      10.80000000      54.93804400      160        5
Mn       7.20000000       7.20000000       0.00000000      54.93804400      161        5
Ni       7.20000000       9.00000000       1.80000000      58.69340000      162        2
Co       9.00000000       7.20000000       1.80000000      58.93319400      163        1
Fe       9.00000000       9.00000000       0.00000000      55.84500000      164        4
Mn       7.20000000       7.20000000       3.60000000      54.93804400      165        5
Ni       7.20000000       9.00000000       5.40000000      58.69340000      166        2
Mn       9.00000000       7.20000000       5.40000000      54.93804400      167        5
Fe       9.00000000       9.00000000       3.60000000      55.84500000      168        4
Cr       7.20000000       7.20000000       7.20000000      51.99610000      169        3
Cr       7.20000000       9.00000000       9.00000000      51.99610000      170        3
Cr       9.00000000       7.20000000       9.00000000      51.99610000      171        3
Mn       9.00000000       9.00000000       7.20000000      54.93804400      172        5
Fe       7.20000000       7.20000000      10.80000000      55.84500000      173        4
Ni       7.20000000       9.00000000      12.60000000      58.69340000      174        2
Cr       9.00000000       7.20000000      12.60000000      51.99610000      175        3
Mn       9.00000000       9.00000000      10.80000000      54.93804400      176        5
Mn       7.20000000      10.80000000       0.00000000      54.93804400      177        5
Mn       7.20000000      12.60000000       1.80000000      54.93804400      178        5
Cr       9.00000000      10.80000000       1.80000000      51.99610000      179        3
Fe       9.00000000      12.60000000       0.00000000      55.84500000      180        4
Mn       7.20000000      10.80000000       3.60000000      54.93804400      181        5
Cr       7.20000000      12.60000000       5.40000000      51.99610000      182        3
Cr       9.00000000      10.80000000       5.40000000      51.99610000      183        3
Fe       9.00000000      12.60000000       3.60000000      55.84500000      184        4
Ni       7.20000000      10.80000000       7.20000000      58.69340000      185        2
Fe       7.20000000      12.60000000       9.00000000      55.84500000      186        4
Cr       9.00000000      10.80000000       9.00000000      51.99610000      187        3
Mn       9.00000000      12.60000000       7.20000000      54.93804400      188        5
Fe       7.20000000      10.80000000      10.80000000      55.84500000      189        4
Fe       7.20000000      12.60000000      12.60000000      55.84500000      190        4
Cr       9.00000000      10.80000000      12.60000000      51.99610000      191        3
Mn       9.00000000      12.60000000      10.80000000      54.93804400      192        5
Ni      10.80000000       0.00000000       0.00000000      58.69340000      193        2
Mn      10.80000000       1.80000000       1.80000000      54.93804400      194        5
Fe      12.60000000       0.00000000       1.80000000      55.84500000      195        4
Cr      12.60000000       1.80000000       0.00000000      51.99610000      196        3
Fe      10.80000000       0.00000000       3.60000000      55.84500000      197        4
Co      10.80000000       1.80000000       5.40000000      58.93319400      198        1
Fe      12.60000000       0.00000000       5.40000000      55.84500000      199        4
Cr      12.60000000       1.80000000       3.60000000      51.99610000      200        3
Ni      10.80000000       0.00000000       7.20000000      58.69340000      201        2
Co      10.80000000       1.80000000       9.00000000      58.93319400      202        1
Mn      12.60000000       0.00000000       9.00000000      54.93804400      203        5
Co      12.60000000       1.80000000       7.20000000      58.93319400      204        1
Ni      10.80000000       0.00000000      10.80000000      58.69340000      205        2
Mn      10.80000000       1.80000000      12.60000000      54.93804400      206        5
Mn      12.60000000       0.00000000      12.60000000      54.93804400      207        5
Fe      12.60000000       1.80000000      10.80000000      55.84500000      208        4
Mn      10.80000000       3.60000000       0.00000000      54.93804400      209        5
Ni      10.80000000       5.40000000       1.80000000      58.69340000      210        2
Cr      12.60000000       3.60000000       1.80000000      51.99610000      211        3
Mn      12.60000000       5.40000000       0.00000000      54.93804400      212        5
Fe      10.80000000       3.60000000       3.60000000      55.84500000      213        4
Co      10.80000000       5.40000000       5.40000000      58.93319400      214        1
Co      12.60000000       3.60000000       5.40000000      58.93319400      215        1
Co      12.60000000       5.40000000       3.60000000      58.93319400      216        1
Co      10.80000000       3.60000000       7.20000000      58.93319400      217        1
Co      10.80000000       5.40000000       9.00000000      58.93319400      218        1
Co      12.60000000       3.60000000       9.00000000      58.93319400      219        1
Ni      12.60000000       5.40000000       7.20000000      58.69340000      220        2
Ni      10.80000000       3.60000000      10.80000000      58.69340000      221        2
Fe      10.80000000       5.40000000      12.60000000      55.84500000      222        4
Cr      12.60000000       3.60000000      12.60000000      51.99610000      223        3
Co      12.60000000       5.40000000      10.80000000      58.93319400      224        1
Co      10.80000000       7.20000000       0.00000000      58.93319400      225        1
Co      10.80000000       9.00000000       1.80000000      58.93319400      226        1
Ni      12.60000000       7.20000000       1.80000000      58.69340000      227        2
Co      12.60000000       9.00000000       0.00000000      58.93319400      228        1
Co      10.80000000       7.20000000       3.60000000      58.93319400      229        1
Ni      10.80000000       9.00000000       5.40000000      58.69340000      230        2
Co      12.60000000       7.20000000       5.40000000      58.93319400      231        1
Co      12.60000000       9.00000000       3.60000000      58.93319400      232        1
Fe      10.80000000       7.20000000       7.20000000      55.84500000      233        4
Mn      10.80000000       9.00000000       9.00000000      54.93804400      234        5
Co      12.60000000       7.20000000       9.00000000      58.93319400      235        1
Co      12.60000000       9.00000000       7.20000000      58.93319400      236        1
Ni      10.80000000       7.20000000      10.80000000      58.69340000      237        2
Mn      10.80000000       9.00000000      12.60000000      54.93804400      238        5
Co      12.60000000       7.20000000      12.60000000      58.93319400      239        1
Co      12.60000000       9.00000000      10.80000000      58.93319400      240        1
Fe      10.80000000      10.80000000       0.00000000      55.84500000      241        4
Mn      10.80000000      12.60000000       1.80000000      54.93804400      242        5
Ni      12.60000000      10.80000000       1.80000000      58.69340000      243        2
Cr      12.60000000      12.60000000       0.00000000      51.99610000      244        3
Co      10.80000000      10.80000000       3.60000000      58.93319400      245        1
Co      10.80000000      12.60000000       5.40000000      58.93319400      246        1
Co      12.60000000      10.80000000       5.40000000      58.93319400      247        1
Cr      12.60000000      12.60000000       3.60000000      51.99610000      248        3
Fe      10.80000000      10.80000000       7.20000000      55.84500000      249        4
Cr      10.80000000      12.60000000       9.00000000      51.99610000      250        3
Ni      12.60000000      10.80000000       9.00000000      58.69340000      251        2
Mn      12.60000000      12.60000000       7.20000000      54.93804400      252        5
Fe      10.80000000      10.80000000      10.80000000      55.84500000      253        4
Cr      10.80000000      12.60000000      12.60000000      51.99610000      254        3
Ni      12.60000000      10.80000000      12.60000000      58.69340000      255        2
Mn      12.60000000      12.60000000      10.80000000      54.93804400      256        5
