256
Lattice="14.4 0.0 0.0 0.0 14.4 0.0 0.0 0.0 14.4" Properties=species:S:1:pos:R:3:masses:R:1:id:I:1:type:I:1 comment="(written by ASE)" energy=-1021.56621906608 pbc="T T T"
Fe       0.00000000       0.00000000       0.00000000      55.84500000        1        4
Co       0.00000000       1.80000000       1.80000000      58.93319400        2        1
Ni       1.80000000       0.00000000       1.80000000      58.69340000        3        2
Mn       1.80000000       1.80000000       0.00000000      54.93804400        4        5
Co       0.00000000       0.00000000       3.60000000      58.93319400        5        1
Cr       0.00000000       1.80000000       5.40000000      51.99610000        6        3
Ni       1.80000000       0.00000000       5.40000000      58.69340000        7        2
Cr       1.80000000       1.80000000       3.60000000      51.99610000        8        3
Cr       0.00000000       0.00000000       7.20000000      51.99610000        9        3
Co       0.00000000       1.80000000       9.00000000      58.93319400       10        1
Co       1.80000000       0.00000000       9.00000000      58.93319400       11        1
Co       1.80000000       1.80000000       7.20000000      58.93319400       12        1
Fe       0.00000000       0.00000000      10.80000000      55.84500000       13        4
Fe       0.00000000       1.80000000      12.60000000      55.84500000       14        4
Fe       1.80000000       0.00000000      12.60000000      55.84500000       15        4
Ni       1.80000000       1.80000000      10.80000000      58.69340000       16        2
Ni       0.00000000       3.60000000       0.00000000      58.69340000       17        2
Co       0.00000000       5.40000000       1.80000000      58.93319400       18        1
Ni       1.80000000       3.60000000       1.80000000      58.69340000       19        2
Cr       1.80000000       5.40000000       0.00000000      51.99610000       20        3
Co       0.00000000       3.60000000       3.60000000      58.93319400       21        1
Co       0.00000000       5.40000000       5.40000000      58.93319400       22        1
Co       1.80000000       3.60000000       5.40000000      58.93319400       23        1
Cr       1.80000000       5.40000000       3.60000000      51.99610000       24        3
Co       0.00000000       3.60000000       7.20000000      58.93319400       25        1
Co       0.00000000       5.40000000       9.00000000      58.93319400       26        1
Cr       1.80000000       3.60000000       9.00000000      51.99610000       27        3
Cr       1.80000000       5.40000000       7.20000000      51.99610000       28        3
Co       0.00000000       3.60000000      10.80000000      58.93319400       29        1
Co       0.00000000       5.40000000      12.60000000      58.93319400       30        1
Mn       1.80000000       3.60000000      12.60000000      54.93804400       31        5
Cr       1.80000000       5.40000000      10.80000000      51.99610000       32        3
Co       0.00000000       7.20000000       0.00000000      58.93319400       33        1
Mn       0.00000000       9.00000000       1.80000000      54.93804400       34        5
Cr       1.80000000       7.20000000       1.80000000      51.99610000       35        3
Ni       1.80000000       9.00000000       0.00000000      58.69340000       36        2
Cr       0.00000000       7.20000000       3.60000000      51.99610000       37        3
Cr       0.00000000       9.00000000       5.40000000      51.99610000       38        3
Ni       1.80000000       7.20000000       5.40000000      58.69340000       39        2
Fe       1.80000000       9.00000000       3.60000000      55.84500000       40        4
Co       0.00000000       7.20000000       7.20000000      58.93319400       41        1
Co       0.00000000       9.00000000       9.00000000      58.93319400       42        1
Co       1.80000000       7.20000000       9.00000000      58.93319400       43        1
Ni       1.80000000       9.00000000       7.20000000      58.69340000       44        2
Co       0.00000000       7.20000000      10.80000000      58.93319400       45        1
Mn       0.00000000       9.00000000      12.60000000      54.93804400       46        5
Cr       1.80000000       7.20000000      12.60000000      51.99610000       47        3
Ni       1.80000000       9.00000000      10.80000000      58.69340000       48        2
Fe       0.00000000      10.80000000       0.00000000      55.84500000       49        4
Fe       0.00000000      12.60000000       1.80000000      55.84500000       50        4
Fe       1.80000000      10.80000000       1.80000000      55.84500000       51        4
Fe       1.80000000      12.60000000       0.00000000      55.84500000       52        4
Ni       0.00000000      10.80000000       3.60000000      58.69340000       53        2
Cr       0.00000000      12.60000000       5.40000000      51.99610000       54        3
Mn       1.80000000      10.80000000       5.40000000      54.93804400       55        5
Mn       1.80000000      12.60000000       3.60000000      54.93804400       56        5
Cr       0.00000000      10.80000000       7.20000000      51.99610000       57        3
Cr       0.00000000      12.60000000       9.00000000      51.99610000       58        3
Cr       1.80000000      10.80000000       9.00000000      51.99610000       59        3
Cr       1.80000000      12.60000000       7.20000000      51.99610000       60        3
Mn       0.00000000      10.80000000      10.80000000      54.93804400       61        5
Fe       0.00000000      12.60000000      12.60000000      55.84500000       62        4
Mn       1.80000000      10.80000000      12.60000000      54.93804400       63        5
Cr       1.80000000      12.60000000      10.80000000      51.99610000       64        3
Fe       3.60000000       0.00000000       0.00000000      55.84500000       65        4
Mn       3.60000000       1.80000000       1.80000000      54.93804400       66        5
Ni       5.40000000       0.00000000       1.80000000      58.69340000       67        2
Fe       5.40000000       1.80000000       0.00000000      55.84500000       68        4
Mn       3.60000000       0.00000000       3.60000000      54.93804400       69        5
Co       3.60000000       1.80000000       5.40000000      58.93319400       70        1
Ni       5.40000000       0.00000000       5.40000000      58.69340000       71        2
Mn       5.40000000       1.80000000       3.60000000      54.93804400       72        5
Co       3.60000000       0.00000000       7.20000000      58.93319400       73        1
Co       3.60000000       1.80000000       9.00000000      58.93319400       74        1
Co       5.40000000       0.00000000       9.00000000      58.93319400       75        1
Cr       5.40000000       1.80000000       7.20000000      51.99610000       76        3
Cr       3.60000000       0.00000000      10.80000000      51.99610000       77        3
Fe       3.60000000       1.80000000      12.60000000      55.84500000       78        4
Mn       5.40000000       0.00000000      12.60000000      54.93804400       79        5
Mn       5.40000000       1.80000000      10.80000000      54.93804400       80        5
Mn       3.60000000       3.60000000       0.00000000      54.93804400       81        5
Ni       3.60000000       5.40000000       1.80000000      58.69340000       82        2
Mn       5.40000000       3.60000000       1.80000000      54.93804400       83        5
Fe       5.40000000       5.40000000       0.00000000      55.84500000       84        4
Mn       3.60000000       3.60000000       3.60000000      54.93804400       85        5
Mn       3.60000000       5.40000000       5.40000000      54.93804400       86        5
Mn       5.40000000       3.60000000       5.40000000      54.93804400       87        5
Fe       5.40000000       5.40000000       3.60000000      55.84500000       88        4
Cr       3.60000000       3.60000000       7.20000000      51.99610000       89        3
Mn       3.60000000       5.40000000       9.00000000      54.93804400       90        5
Cr       5.40000000       3.60000000       9.00000000      51.99610000       91        3
Cr       5.40000000       5.40000000       7.20000000      51.99610000       92        3
Ni       3.60000000       3.60000000      10.80000000      58.69340000       93        2
Ni       3.60000000       5.40000000      12.60000000      58.69340000       94        2
Fe       5.40000000       3.60000000      12.60000000      55.84500000       95        4
Ni       5.40000000       5.40000000      10.80000000      58.69340000       96        2
Mn       3.60000000       7.20000000       0.00000000      54.93804400       97        5
Fe       3.60000000       9.00000000       1.80000000      55.84500000       98        4
Fe       5.40000000       7.20000000       1.80000000      55.84500000       99        4
Ni       5.40000000       9.00000000       0.00000000      58.69340000      100        2
Mn       3.60000000       7.20000000       3.60000000      54.93804400      101        5
Mn       3.60000000       9.00000000       5.40000000      54.93804400      102        5
Fe       5.40000000       7.20000000       5.40000000      55.84500000      103        4
Fe       5.40000000       9.00000000       3.60000000      55.84500000      104        4
Ni       3.60000000       7.20000000       7.20000000      58.69340000      105        2
Mn       3.60000000       9.00000000       9.00000000      54.93804400      106        5
Mn       5.40000000       7.20000000       9.00000000      54.93804400      107        5
Fe       5.40000000       9.00000000       7.20000000      55.84500000      108        4
Mn       3.60000000       7.20000000      10.80000000      54.93804400      109        5
Mn       3.60000000       9.00000000      12.60000000      54.93804400      110        5
Mn       5.40000000       7.20000000      12.60000000      54.93804400      111        5
Ni       5.40000000       9.00000000      10.80000000      58.69340000      112        2
Cr       3.60000000      10.80000000       0.00000000      51.99610000      113        3
Fe       3.60000000      12.60000000       1.80000000      55.84500000      114        4
Fe       5.40000000      10.80000000       1.80000000      55.84500000      115        4
Ni       5.40000000      12.60000000       0.00000000      58.69340000      116        2
Fe       3.60000000      10.80000000       3.60000000      55.84500000      117        4
Mn       3.60000000      12.60000000       5.40000000      54.93804400      118        5
Fe       5.40000000      10.80000000       5.40000000      55.84500000      119        4
Fe       5.40000000      12.60000000       3.60000000      55.84500000      120        4
Mn       3.60000000      10.80000000       7.20000000      54.93804400      121        5
Cr       3.60000000      12.60000000       9.00000000      51.99610000      122        3
Mn       5.40000000      10.80000000       9.00000000      54.93804400      123        5
Mn       5.40000000      12.60000000       7.20000000      54.93804400      124        5
Mn       3.60000000      10.80000000      10.80000000      54.93804400      125        5
Cr       3.60000000      12.60000000      12.60000000      51.99610000      126        3
Co       5.40000000      10.80000000      12.60000000      58.93319400      127        1
Cr       5.40000000      12.60000000      10.80000000      51.99610000      128        3
Mn       7.20000000       0.00000000       0.00000000      54.93804400      129        5
Mn       7.20000000       1.80000000       1.80000000      54.93804400      130        5
Ni       9.00000000       0.00000000       1.80000000      58.69340000      131        2
Mn       9.00000000       1.80000000       0.00000000      54.93804400      132        5
Ni       7.20000000       0.00000000       3.60000000      58.69340000      133        2
Co       7.20000000       1.80000000       5.40000000      58.93319400      134        1
Co       9.00000000       0.00000000       5.40000000      58.93319400      135        1
Co       9.00000000       1.80000000       3.60000000      58.93319400      136        1
Cr       7.20000000       0.00000000       7.20000000      51.99610000      137        3
Cr       7.20000000       1.80000000       9.00000000      51.99610000      138        3
Mn       9.00000000       0.00000000       9.00000000      54.93804400      139        5
Co       9.00000000       1.80000000       7.20000000      58.93319400      140        1
Mn       7.20000000       0.00000000      10.80000000      54.93804400      141        5
Fe       7.20000000       1.80000000      12.60000000      55.84500000      142        4
Mn       9.00000000       0.00000000      12.60000000      54.93804400      143        5
Ni       9.00000000       1.80000000      10.80000000      58.69340000      144        2
Fe       7.20000000       3.60000000       0.00000000      55.84500000      145        4
Fe       7.20000000       5.40000000       1.80000000      55.84500000      146        4
Ni       9.00000000       3.60000000       1.80000000      58.69340000      147        2
Fe       9.00000000       5.40000000       0.00000000      55.84500000      148        4
Ni       7.20000000       3.60000000       3.60000000      58.69340000      149        2
Ni       7.20000000       5.40000000       5.40000000      58.69340000      150        2
Co       9.00000000       3.60000000       5.40000000      58.93319400      151        1
Fe       9.00000000       5.40000000       3.60000000      55.84500000      152        4
Co       7.20000000       3.60000000       7.20000000      58.93319400      153        1
Ni       7.20000000       5.40000000       9.00000000      58.69340000      154        2
Co       9.00000000       3.60000000       9.00000000      58.93319400      155        1
Ni       9.00000000       5.40000000       7.20000000      58.69340000      156        2
Fe       7.20000000       3.60000000      10.80000000      55.84500000      157        4
Fe       7.20000000       5.40000000      12.60000000      55.84500000      158        4
Fe       9.00000000       3.60000000      12.60000000      55.84500000      159        4
Mn       9.00000000       5.40000000      10.80000000      54.93804400      160        5
Fe       7.20000000       7.20000000       0.00000000      55.84500000      161        4
Fe       7.20000000       9.00000000       1.80000000      55.84500000      162        4
Fe       9.00000000       7.20000000       1.80000000      55.84500000      163        4
Fe       9.00000000       9.00000000       0.00000000      55.84500000      164        4
Fe       7.20000000       7.20000000       3.60000000      55.84500000      165        4
Fe       7.20000000       9.00000000       5.40000000      55.84500000      166        4
Fe       9.00000000       7.20000000       5.40000000      55.84500000      167        4
Fe       9.00000000       9.00000000       3.60000000      55.84500000      168        4
Fe       7.20000000       7.20000000       7.20000000      55.84500000      169        4
Ni       7.20000000       9.00000000       9.00000000      58.69340000      170        2
Mn       9.00000000       7.20000000       9.00000000      54.93804400      171        5
Fe       9.00000000       9.00000000       7.20000000      55.84500000      172        4
Mn       7.20000000       7.20000000      10.80000000      54.93804400      173        5
Mn       7.20000000       9.00000000      12.60000000      54.93804400      174        5
Ni       9.00000000       7.20000000      12.60000000      58.69340000      175        2
Mn       9.00000000       9.00000000      10.80000000      54.93804400      176        5
Fe       7.20000000      10.80000000       0.00000000      55.84500000      177        4
Mn       7.20000000      12.60000000       1.80000000      54.93804400      178        5
Fe       9.00000000      10.80000000       1.80000000      55.84500000      179        4
Mn       9.00000000      12.60000000       0.00000000      54.93804400      180        5
Fe       7.20000000      10.80000000       3.60000000      55.84500000      181        4
Mn       7.20000000      12.60000000       5.40000000      54.93804400      182        5
Fe       9.00000000      10.80000000       5.40000000      55.84500000      183        4
Ni       9.00000000      12.60000000       3.60000000      58.69340000      184        2
Fe       7.20000000      10.80000000       7.20000000      55.84500000      185        4
Cr       7.20000000      12.60000000       9.00000000      51.99610000      186        3
Cr       9.00000000      10.80000000       9.00000000      51.99610000      187        3
Ni       9.00000000      12.60000000       7.20000000      58.69340000      188        2
Mn       7.20000000      10.80000000      10.80000000      54.93804400      189        5
Ni       7.20000000      12.60000000      12.60000000      58.69340000      190        2
Mn       9.00000000      10.80000000      12.60000000      54.93804400      191        5
Mn       9.00000000      12.60000000      10.80000000      54.93804400      192        5
Mn      10.80000000       0.00000000       0.00000000      54.93804400      193        5
Co      10.80000000       1.80000000       1.80000000      58.93319400      194        1
Ni      12.60000000       0.00000000       1.80000000      58.69340000      195        2
Cr      12.60000000       1.80000000       0.00000000      51.99610000      196        3
Co      10.80000000       0.00000000       3.60000000      58.93319400      197        1
Co      10.80000000       1.80000000       5.40000000      58.93319400      198        1
Co      12.60000000       0.00000000       5.40000000      58.93319400      199        1
Co      12.60000000       1.80000000       3.60000000      58.93319400      200        1
Cr      10.80000000       0.00000000       7.20000000      51.99610000      201        3
Cr      10.80000000       1.80000000       9.00000000      51.99610000      202        3
Cr      12.60000000       0.00000000       9.00000000      51.99610000      203        3
Cr      12.60000000       1.80000000       7.20000000      51.99610000      204        3
Ni      10.80000000       0.00000000      10.80000000      58.69340000      205        2
Mn      10.80000000       1.80000000      12.60000000      54.93804400      206        5
Mn      12.60000000       0.00000000      12.60000000      54.93804400      207        5
Cr      12.60000000       1.80000000      10.80000000      51.99610000      208        3
Cr      10.80000000       3.60000000       0.00000000      51.99610000      209        3
Ni      10.80000000       5.40000000       1.80000000      58.69340000      210        2
Co      12.60000000       3.60000000       1.80000000      58.93319400      211        1
Co      12.60000000       5.40000000       0.00000000      58.93319400      212        1
Co      10.80000000       3.60000000       3.60000000      58.93319400      213        1
Ni      10.80000000       5.40000000       5.40000000      58.69340000      214        2
Co      12.60000000       3.60000000       5.40000000      58.93319400      215        1
Co      12.60000000       5.40000000       3.60000000      58.93319400      216        1
Co      10.80000000       3.60000000       7.20000000      58.93319400      217        1
Co      10.80000000       5.40000000       9.00000000      58.93319400      218        1
Co      12.60000000       3.60000000       9.00000000      58.93319400      219        1
Co      12.60000000       5.40000000       7.20000000      58.93319400      220        1
Ni      10.80000000       3.60000000      10.80000000      58.69340000      221        2
Ni      10.80000000       5.40000000      12.60000000      58.69340000      222        2
Cr      12.60000000       3.60000000      12.60000000      51.99610000      223        3
Co      12.60000000       5.40000000      10.80000000      58.93319400      224        1
Mn      10.80000000       7.20000000       0.00000000      54.93804400      225        5
Ni      10.80000000       9.00000000       1.80000000      58.69340000      226        2
Cr      12.60000000       7.20000000       1.80000000      51.99610000      227        3
Ni      12.60000000       9.00000000       0.00000000      58.69340000      228        2
Cr      10.80000000       7.20000000       3.60000000      51.99610000      229        3
Fe      10.80000000       9.00000000       5.40000000      55.84500000      230        4
Co      12.60000000       7.20000000       5.40000000      58.93319400      231        1
Mn      12.60000000       9.00000000       3.60000000      54.93804400      232        5
Cr      10.80000000       7.20000000       7.20000000      51.99610000      233        3
Ni      10.80000000       9.00000000       9.00000000      58.69340000      234        2
Co      12.60000000       7.20000000       9.00000000      58.93319400      235        1
Cr      12.60000000       9.00000000       7.20000000      51.99610000      236        3
Co      10.80000000       7.20000000      10.80000000      58.93319400      237        1
Ni      10.80000000       9.00000000      12.60000000      58.69340000      238        2
Co      12.60000000       7.20000000      12.60000000      58.93319400      239        1
Ni      12.60000000       9.00000000      10.80000000      58.69340000      240        2
Mn      10.80000000      10.80000000       0.00000000      54.93804400      241        5
Mn      10.80000000      12.60000000       1.80000000      54.93804400      242        5
Mn      12.60000000      10.80000000       1.80000000      54.93804400      243        5
Fe      12.60000000      12.60000000       0.00000000      55.84500000      244        4
Ni      10.80000000      10.80000000       3.60000000      58.69340000      245        2
Mn      10.80000000      12.60000000       5.40000000      54.93804400      246        5
Cr      12.60000000      10.80000000       5.40000000      51.99610000      247        3
Mn      12.60000000      12.60000000       3.60000000      54.93804400      248        5
Cr      10.80000000      10.80000000       7.20000000      51.99610000      249        3
Mn      10.80000000      12.60000000       9.00000000      54.93804400      250        5
Cr      12.60000000      10.80000000       9.00000000      51.99610000      251        3
Cr      12.60000000      12.60000000       7.20000000      51.99610000      252        3
Ni      10.80000000      10.80000000      10.80000000      58.69340000      253        2
Mn      10.80000000      12.60000000      12.60000000      54.93804400      254        5
Fe      12.60000000      10.80000000      12.60000000      55.84500000      255        4
Fe      12.60000000      12.60000000      10.80000000      55.84500000      256        4
