256
Lattice="14.4 0.0 0.0 0.0 14.4 0.0 0.0 0.0 14.4" Properties=species:S:1:pos:R:3:masses:R:1:id:I:1:type:I:1 comment="(written by ASE)" energy=-1025.27784047643 pbc="T T T"
Ni       0.00000000       0.00000000       0.00000000      58.69340000        1        2
Fe       0.00000000       1.80000000       1.80000000      55.84500000        2        4
Fe       1.80000000       0.00000000       1.80000000      55.84500000        3        4
Ni       1.80000000       1.80000000       0.00000000      58.69340000        4        2
Ni       0.00000000       0.00000000       3.60000000      58.69340000        5        2
Cr       0.00000000       1.80000000       5.40000000      51.99610000        6        3
Co       1.80000000       0.00000000       5.40000000      58.93319400        7        1
Ni       1.80000000       1.80000000       3.60000000      58.69340000        8        2
Ni       0.00000000       0.00000000       7.20000000      58.69340000        9        2
Fe       0.00000000       1.80000000       9.00000000      55.84500000       10        4
Co       1.80000000       0.00000000       9.00000000      58.93319400       11        1
Cr       1.80000000       1.80000000       7.20000000      51.99610000       12        3
Ni       0.00000000       0.00000000      10.80000000      58.69340000       13        2
Fe       0.00000000       1.80000000      12.60000000      55.84500000       14        4
Mn       1.80000000       0.00000000      12.60000000      54.93804400       15        5
Mn       1.80000000       1.80000000      10.80000000      54.93804400       16        5
Fe       0.00000000       3.60000000       0.00000000      55.84500000       17        4
Mn       0.00000000       5.40000000       1.80000000      54.93804400       18        5
Ni       1.80000000       3.60000000       1.80000000      58.69340000       19        2
Fe       1.80000000       5.40000000       0.00000000      55.84500000       20        4
Mn       0.00000000       3.60000000       3.60000000      54.93804400       21        5
Cr       0.00000000       5.40000000       5.40000000      51.99610000       22        3
Co       1.80000000       3.60000000       5.40000000      58.93319400       23        1
Cr       1.80000000       5.40000000       3.60000000      51.99610000       24        3
Cr       0.00000000       3.60000000       7.20000000      51.99610000       25        3
Mn       0.00000000       5.40000000       9.00000000      54.93804400       26        5
Mn       1.80000000       3.60000000       9.00000000      54.93804400       27        5
Co       1.80000000       5.40000000       7.20000000      58.93319400       28        1
Co       0.00000000       3.60000000      10.80000000      58.93319400       29        1
Mn       0.00000000       5.40000000      12.60000000      54.93804400       30        5
Mn       1.80000000       3.60000000      12.60000000      54.93804400       31        5
Fe       1.80000000       5.40000000      10.80000000      55.84500000       32        4
Co       0.00000000       7.20000000       0.00000000      58.93319400       33        1
Cr       0.00000000       9.00000000       1.80000000      51.99610000       34        3
Mn       1.80000000       7.20000000       1.80000000      54.93804400       35        5
Fe       1.80000000       9.00000000       0.00000000      55.84500000       36        4
Co       0.00000000       7.20000000       3.60000000      58.93319400       37        1
Cr       0.00000000       9.00000000       5.40000000      51.99610000       38        3
Cr       1.80000000       7.20000000       5.40000000      51.99610000       39        3
Co       1.80000000       9.00000000       3.60000000      58.93319400       40        1
Cr       0.00000000       7.20000000       7.20000000      51.99610000       41        3
Co       0.00000000       9.00000000       9.00000000      58.93319400       42        1
Cr       1.80000000       7.20000000       9.00000000      51.99610000       43        3
Co       1.80000000       9.00000000       7.20000000      58.93319400       44        1
Ni       0.00000000       7.20000000      10.80000000      58.69340000       45        2
Fe       0.00000000       9.00000000      12.60000000      55.84500000       46        4
Fe       1.80000000       7.20000000      12.60000000      55.84500000       47        4
Cr       1.80000000       9.00000000      10.80000000      51.99610000       48        3
Ni       0.00000000      10.80000000       0.00000000      58.69340000       49        2
Fe       0.00000000      12.60000000       1.80000000      55.84500000       50        4
Fe       1.80000000      10.80000000       1.80000000      55.84500000       51        4
Ni       1.80000000      12.60000000       0.00000000      58.69340000       52        2
Mn       0.00000000      10.80000000       3.60000000      54.93804400       53        5
Fe       0.00000000      12.60000000       5.40000000      55.84500000       54        4
Co       1.80000000      10.80000000       5.40000000      58.93319400       55        1
Mn       1.80000000      12.60000000       3.60000000      54.93804400       56        5
Mn       0.00000000      10.80000000       7.20000000      54.93804400       57        5
Fe       0.00000000      12.60000000       9.00000000      55.84500000       58        4
Co       1.80000000      10.80000000       9.00000000      58.93319400       59        1
Cr       1.80000000      12.60000000       7.20000000      51.99610000       60        3
Mn       0.00000000      10.80000000      10.80000000      54.93804400       61        5
Fe       0.00000000      12.60000000      12.60000000      55.84500000       62        4
Mn       1.80000000      10.80000000      12.60000000      54.93804400       63        5
Cr       1.80000000      12.60000000      10.80000000      51.99610000       64        3
Mn       3.60000000       0.00000000       0.00000000      54.93804400       65        5
Mn       3.60000000       1.80000000       1.80000000      54.93804400       66        5
Mn       5.40000000       0.00000000       1.80000000      54.93804400       67        5
Co       5.40000000       1.80000000       0.00000000      58.93319400       68        1
Fe       3.60000000       0.00000000       3.60000000      55.84500000       69        4
Cr       3.60000000       1.80000000       5.40000000      51.99610000       70        3
Co       5.40000000       0.00000000       5.40000000      58.93319400       71        1
Co       5.40000000       1.80000000       3.60000000      58.93319400       72        1
Cr       3.60000000       0.00000000       7.20000000      51.99610000       73        3
Co       3.60000000       1.80000000       9.00000000      58.93319400       74        1
Cr       5.40000000       0.00000000       9.00000000      51.99610000       75        3
Mn       5.40000000       1.80000000       7.20000000      54.93804400       76        5
Cr       3.60000000       0.00000000      10.80000000      51.99610000       77        3
Co       3.60000000       1.80000000      12.60000000      58.93319400       78        1
Cr       5.40000000       0.00000000      12.60000000      51.99610000       79        3
Cr       5.40000000       1.80000000      10.80000000      51.99610000       80        3
Mn       3.60000000       3.60000000       0.00000000      54.93804400       81        5
Co       3.60000000       5.40000000       1.80000000      58.93319400       82        1
Mn       5.40000000       3.60000000       1.80000000      54.93804400       83        5
Fe       5.40000000       5.40000000       0.00000000      55.84500000       84        4
Cr       3.60000000       3.60000000       3.60000000      51.99610000       85        3
Cr       3.60000000       5.40000000       5.40000000      51.99610000       86        3
Cr       5.40000000       3.60000000       5.40000000      51.99610000       87        3
Co       5.40000000       5.40000000       3.60000000      58.93319400       88        1
Co       3.60000000       3.60000000       7.20000000      58.93319400       89        1
Mn       3.60000000       5.40000000       9.00000000      54.93804400       90        5
Mn       5.40000000       3.60000000       9.00000000      54.93804400       91        5
Co       5.40000000       5.40000000       7.20000000      58.93319400       92        1
Mn       3.60000000       3.60000000      10.80000000      54.93804400       93        5
Ni       3.60000000       5.40000000      12.60000000      58.69340000       94        2
Co       5.40000000       3.60000000      12.60000000      58.93319400       95        1
Fe       5.40000000       5.40000000      10.80000000      55.84500000       96        4
Ni       3.60000000       7.20000000       0.00000000      58.69340000       97        2
Fe       3.60000000       9.00000000       1.80000000      55.84500000       98        4
Mn       5.40000000       7.20000000       1.80000000      54.93804400       99        5
Mn       5.40000000       9.00000000       0.00000000      54.93804400      100        5
Cr       3.60000000       7.20000000       3.60000000      51.99610000      101        3
Cr       3.60000000       9.00000000       5.40000000      51.99610000      102        3
Co       5.40000000       7.20000000       5.40000000      58.93319400      103        1
Mn       5.40000000       9.00000000       3.60000000      54.93804400      104        5
Cr       3.60000000       7.20000000       7.20000000      51.99610000      105        3
Cr       3.60000000       9.00000000       9.00000000      51.99610000      106        3
Co       5.40000000       7.20000000       9.00000000      58.93319400      107        1
Cr       5.40000000       9.00000000       7.20000000      51.99610000      108        3
Ni       3.60000000       7.20000000      10.80000000      58.69340000      109        2
Mn       3.60000000       9.00000000      12.60000000      54.93804400      110        5
Fe       5.40000000       7.20000000      12.60000000      55.84500000      111        4
Cr       5.40000000       9.00000000      10.80000000      51.99610000      112        3
Mn       3.60000000      10.80000000       0.00000000      54.93804400      113        5
Ni       3.60000000      12.60000000       1.80000000      58.69340000      114        2
Fe       5.40000000      10.80000000       1.80000000      55.84500000      115        4
Cr       5.40000000      12.60000000       0.00000000      51.99610000      116        3
Mn       3.60000000      10.80000000       3.60000000      54.93804400      117        5
Mn       3.60000000      12.60000000       5.40000000      54.93804400      118        5
Co       5.40000000      10.80000000       5.40000000      58.93319400      119        1
Fe       5.40000000      12.60000000       3.60000000      55.84500000      120        4
Cr       3.60000000      10.80000000       7.20000000      51.99610000      121        3
Cr       3.60000000      12.60000000       9.00000000      51.99610000      122        3
Cr       5.40000000      10.80000000       9.00000000      51.99610000      123        3
Cr       5.40000000      12.60000000       7.20000000      51.99610000      124        3
Co       3.60000000      10.80000000      10.80000000      58.93319400      125        1
Co       3.60000000      12.60000000      12.60000000      58.93319400      126        1
Co       5.40000000      10.80000000      12.60000000      58.93319400      127        1
Cr       5.40000000      12.60000000      10.80000000      51.99610000      128        3
Co       7.20000000       0.00000000       0.00000000      58.93319400      129        1
Mn       7.20000000       1.80000000       1.80000000      54.93804400      130        5
Mn       9.00000000       0.00000000       1.80000000      54.93804400      131        5
Co       9.00000000       1.80000000       0.00000000      58.93319400      132        1
Mn       7.20000000       0.00000000       3.60000000      54.93804400      133        5
Mn       7.20000000       1.80000000       5.40000000      54.93804400      134        5
Ni       9.00000000       0.00000000       5.40000000      58.69340000      135        2
Fe       9.00000000       1.80000000       3.60000000      55.84500000      136        4
Ni       7.20000000       0.00000000       7.20000000      58.69340000      137        2
Fe       7.20000000       1.80000000       9.00000000      55.84500000      138        4
Mn       9.00000000       0.00000000       9.00000000      54.93804400      139        5
Fe       9.00000000       1.80000000       7.20000000      55.84500000      140        4
Co       7.20000000       0.00000000      10.80000000      58.93319400      141        1
Cr       7.20000000       1.80000000      12.60000000      51.99610000      142        3
Ni       9.00000000       0.00000000      12.60000000      58.69340000      143        2
Mn       9.00000000       1.80000000      10.80000000      54.93804400      144        5
Cr       7.20000000       3.60000000       0.00000000      51.99610000      145        3
Co       7.20000000       5.40000000       1.80000000      58.93319400      146        1
Co       9.00000000       3.60000000       1.80000000      58.93319400      147        1
Cr       9.00000000       5.40000000       0.00000000      51.99610000      148        3
Mn       7.20000000       3.60000000       3.60000000      54.93804400      149        5
Mn       7.20000000       5.40000000       5.40000000      54.93804400      150        5
Ni       9.00000000       3.60000000       5.40000000      58.69340000      151        2
Cr       9.00000000       5.40000000       3.60000000      51.99610000      152        3
Co       7.20000000       3.60000000       7.20000000      58.93319400      153        1
Fe       7.20000000       5.40000000       9.00000000      55.84500000      154        4
Ni       9.00000000       3.60000000       9.00000000      58.69340000      155        2
Fe       9.00000000       5.40000000       7.20000000      55.84500000      156        4
Ni       7.20000000       3.60000000      10.80000000      58.69340000      157        2
Ni       7.20000000       5.40000000      12.60000000      58.69340000      158        2
Cr       9.00000000       3.60000000      12.60000000      51.99610000      159        3
Mn       9.00000000       5.40000000      10.80000000      54.93804400      160        5
Mn       7.20000000       7.20000000       0.00000000      54.93804400      161        5
Ni       7.20000000       9.00000000       1.80000000      58.69340000      162        2
Cr       9.00000000       7.20000000       1.80000000      51.99610000      163        3
Fe       9.00000000       9.00000000       0.00000000      55.84500000      164        4
Cr       7.20000000       7.20000000       3.60000000      51.99610000      165        3
Mn       7.20000000       9.00000000       5.40000000      54.93804400      166        5
Co       9.00000000       7.20000000       5.40000000      58.93319400      167        1
Fe       9.00000000       9.00000000       3.60000000      55.84500000      168        4
Mn       7.20000000       7.20000000       7.20000000      54.93804400      169        5
Cr       7.20000000       9.00000000       9.00000000      51.99610000      170        3
Ni       9.00000000       7.20000000       9.00000000      58.69340000      171        2
Fe       9.00000000       9.00000000       7.20000000      55.84500000      172        4
Ni       7.20000000       7.20000000      10.80000000      58.69340000      173        2
Fe       7.20000000       9.00000000      12.60000000      55.84500000      174        4
Mn       9.00000000       7.20000000      12.60000000      54.93804400      175        5
Ni       9.00000000       9.00000000      10.80000000      58.69340000      176        2
Ni       7.20000000      10.80000000       0.00000000      58.69340000      177        2
Ni       7.20000000      12.60000000       1.80000000      58.69340000      178        2
Fe       9.00000000      10.80000000       1.80000000      55.84500000      179        4
Fe       9.00000000      12.60000000       0.00000000      55.84500000      180        4
Ni       7.20000000      10.80000000       3.60000000      58.69340000      181        2
Fe       7.20000000      12.60000000       5.40000000      55.84500000      182        4
Ni       9.00000000      10.80000000       5.40000000      58.69340000      183        2
Fe       9.00000000      12.60000000       3.60000000      55.84500000      184        4
Ni       7.20000000      10.80000000       7.20000000      58.69340000      185        2
Co       7.20000000      12.60000000       9.00000000      58.93319400      186        1
Ni       9.00000000      10.80000000       9.00000000      58.69340000      187        2
Fe       9.00000000      12.60000000       7.20000000      55.84500000      188        4
Co       7.20000000      10.80000000      10.80000000      58.93319400      189        1
Cr       7.20000000      12.60000000      12.60000000      51.99610000      190        3
Ni       9.00000000      10.80000000      12.60000000      58.69340000      191        2
Mn       9.00000000      12.60000000      10.80000000      54.93804400      192        5
Fe      10.80000000       0.00000000       0.00000000      55.84500000      193        4
Mn      10.80000000       1.80000000       1.80000000      54.93804400      194        5
Ni      12.60000000       0.00000000       1.80000000      58.69340000      195        2
Fe      12.60000000       1.80000000       0.00000000      55.84500000      196        4
Ni      10.80000000       0.00000000       3.60000000      58.69340000      197        2
Mn      10.80000000       1.80000000       5.40000000      54.93804400      198        5
Fe      12.60000000       0.00000000       5.40000000      55.84500000      199        4
Fe      12.60000000       1.80000000       3.60000000      55.84500000      200        4
Ni      10.80000000       0.00000000       7.20000000      58.69340000      201        2
Mn      10.80000000       1.80000000       9.00000000      54.93804400      202        5
Fe      12.60000000       0.00000000       9.00000000      55.84500000      203        4
Mn      12.60000000       1.80000000       7.20000000      54.93804400      204        5
Co      10.80000000       0.00000000      10.80000000      58.93319400      205        1
Mn      10.80000000       1.80000000      12.60000000      54.93804400      206        5
Ni      12.60000000       0.00000000      12.60000000      58.69340000      207        2
Mn      12.60000000       1.80000000      10.80000000      54.93804400      208        5
Mn      10.80000000       3.60000000       0.00000000      54.93804400      209        5
Co      10.80000000       5.40000000       1.80000000      58.93319400      210        1
Ni      12.60000000       3.60000000       1.80000000      58.69340000      211        2
Fe      12.60000000       5.40000000       0.00000000      55.84500000      212        4
Mn      10.80000000       3.60000000       3.60000000      54.93804400      213        5
Cr      10.80000000       5.40000000       5.40000000      51.99610000      214        3
Co      12.60000000       3.60000000       5.40000000      58.93319400      215        1
Mn      12.60000000       5.40000000       3.60000000      54.93804400      216        5
Co      10.80000000       3.60000000       7.20000000      58.93319400      217        1
Mn      10.80000000       5.40000000       9.00000000      54.93804400      218        5
Co      12.60000000       3.60000000       9.00000000      58.93319400      219        1
Cr      12.60000000       5.40000000       7.20000000      51.99610000      220        3
Co      10.80000000       3.60000000      10.80000000      58.93319400      221        1
Ni      10.80000000       5.40000000      12.60000000      58.69340000      222        2
Co      12.60000000       3.60000000      12.60000000      58.93319400      223        1
Fe      12.60000000       5.40000000      10.80000000      55.84500000      224        4
Fe      10.80000000       7.20000000       0.00000000      55.84500000      225        4
Ni      10.80000000       9.00000000       1.80000000      58.69340000      226        2
Co      12.60000000       7.20000000       1.80000000      58.93319400      227        1
Mn      12.60000000       9.00000000       0.00000000      54.93804400      228        5
Cr      10.80000000       7.20000000       3.60000000      51.99610000      229        3
Co      10.80000000       9.00000000       5.40000000      58.93319400      230        1
Co      12.60000000       7.20000000       5.40000000      58.93319400      231        1
Cr      12.60000000       9.00000000       3.60000000      51.99610000      232        3
Mn      10.80000000       7.20000000       7.20000000      54.93804400      233        5
Mn      10.80000000       9.00000000       9.00000000      54.93804400      234        5
Co      12.60000000       7.20000000       9.00000000      58.93319400      235        1
Mn      12.60000000       9.00000000       7.20000000      54.93804400      236        5
Fe      10.80000000       7.20000000      10.80000000      55.84500000      237        4
Fe      10.80000000       9.00000000      12.60000000      55.84500000      238        4
Ni      12.60000000       7.20000000      12.60000000      58.69340000      239        2
Fe      12.60000000       9.00000000      10.80000000      55.84500000      240        4
Mn      10.80000000      10.80000000       0.00000000      54.93804400      241        5
Ni      10.80000000      12.60000000       1.80000000      58.69340000      242        2
Ni      12.60000000      10.80000000       1.80000000      58.69340000      243        2
Fe      12.60000000      12.60000000       0.00000000      55.84500000      244        4
Mn      10.80000000      10.80000000       3.60000000      54.93804400      245        5
Fe      10.80000000      12.60000000       5.40000000      55.84500000      246        4
Co      12.60000000      10.80000000       5.40000000      58.93319400      247        1
Fe      12.60000000      12.60000000       3.60000000      55.84500000      248        4
Fe      10.80000000      10.80000000       7.20000000      55.84500000      249        4
Fe      10.80000000      12.60000000       9.00000000      55.84500000      250        4
Ni      12.60000000      10.80000000       9.00000000      58.69340000      251        2
Ni      12.60000000      12.60000000       7.20000000      58.69340000      252        2
Fe      10.80000000      10.80000000      10.80000000      55.84500000      253        4
Ni      10.80000000      12.60000000      12.60000000      58.69340000      254        2
Ni      12.60000000      10.80000000      12.60000000      58.69340000      255        2
Mn      12.60000000      12.60000000      10.80000000      54.93804400      256        5
